<?xml version="1.0" encoding="UTF-8"?>

<!-- generated on 2024-11-05 11:06:22 by Eclipse SUMO duarouter Version 1.21.0
<duarouterConfiguration xmlns:xsi="http://www.w3.org/2001/XMLSchema-instance" xsi:noNamespaceSchemaLocation="http://sumo.dlr.de/xsd/duarouterConfiguration.xsd">

    <input>
        <net-file value="ChandlerAZ.net.xml"/>
        <route-files value="ChandlerAZ.trips.xml"/>
    </input>

    <output>
        <output-file value="ChandlerAZ.rou.xml"/>
    </output>

</duarouterConfiguration>
-->

<routes xmlns:xsi="http://www.w3.org/2001/XMLSchema-instance" xsi:noNamespaceSchemaLocation="http://sumo.dlr.de/xsd/routes_file.xsd">
    <vehicle id="0" depart="0.00">
        <route edges="451834000#1 436913149 436913144#0 436913144#1 436913168 436913142 436913187 437375835 436913155 437375836 194869662#0 194869662#1 1071772052 436915472#0 436915472#1 436915472#2 436915443 436915459 436915462#0 436915462#1 537363955 912901988#0 912901988#1 5634821#0 5634821#1 5634821#2 5634821#3 5634821#4 5634821#5 5634821#6 5634821#7 5634821#8 5634821#9 5634821#10 32352725#0 -32352725#0"/>
    </vehicle>
    <vehicle id="1" depart="1.00">
        <route edges="-5656269#0 -5625002#0 -537398747 -537398748 5639548#0 5639548#1 5639548#2 436913124 915954385 -316903847#5 -316903847#4 -5634821#9 5637746#0 5637746#1 -5637746#1"/>
    </vehicle>
    <vehicle id="2" depart="2.00">
        <route edges="5599135#1 5599135#2 5658976#1 5658976#2 5658976#3 5658976#4 537363955 436915425#0 436915425#1 436915415 1063625975 436915454#0 436915454#1 436915466#0 436915466#1 1029503782#0 1029503782#1 451834001#0 451834001#1 1029502726 436913127 436913126 436913134 436913123 5639548#0 5639548#1 5639548#2 436913124 436913131 436906383 1029310823#0 1029310823#1 1029310823#2 1029310824 436906400 436906380 436906388#0 436906388#1 1042626585 437374510 980967444#0 980967444#1 437374509 436907163 436906421 436906405 436906413#0 436906413#1 5597108#0 5597108#1 5597108#2 5590400#0"/>
    </vehicle>
    <vehicle id="3" depart="3.00">
        <route edges="5661107#1 -5597238 -5690607#1 -5690607#0 -32993246#1 437375831 381922726 437375833 436913125 437375832 -537398748 5654970 -5591416#1 -5591416#0"/>
    </vehicle>
    <vehicle id="4" depart="4.00">
        <route edges="194869677#1 194869677#2 -194869677#2 -194869677#1 -194869677#0 -194869678 -203938009#3 -203938009#2 -203938009#1 -203938009#0 -1072124110 451808273#0 451808273#1 436913179#0 436913179#1 1072124111 1029503782#0 1029503782#1 451834001#0 451834001#1 1029502726 436913127 436913126 436913134 436913123 5639548#0 5639548#1 5639548#2 436913124 915954385 -316903847#5 1119767533 -32352756#1"/>
    </vehicle>
    <vehicle id="5" depart="5.00">
        <route edges="-5635008#0 -5678556#3 -5678556#2 -5622687#0 436913148 436913135 436913152 437375835 436913155 437375836 194869662#0 194869662#1 1071772052 1072124111 1029503782#0 1029503782#1 451834001#0 451834001#1 1029502726 436913127 436913126 436913134 436913123 5639548#0 5639548#1 5639548#2 436913124 436913131 436906383 1029310823#0 1029310823#1 1029310823#2 1029310824 436906400 436906380 436906388#0 436906388#1 1042626585 437374510 980967444#0 980967444#1 437374509 436907163 436906421 436906405 436906413#0 436906413#1 436906445#0 436906445#1 436906445#2 436906445#3 436906445#4 436906445#5 436906433#0 436906433#1"/>
    </vehicle>
    <vehicle id="6" depart="6.00">
        <route edges="-32352725#0 5634821#11 -5634821#11"/>
    </vehicle>
    <vehicle id="7" depart="7.00">
        <route edges="529474815 529474814 529474816 436920021 436920044#0 436920044#1 436920039#0 537363957#2 436920053#0 436920053#1 436920053#2 436907161 436907162#0 436907162#1 437374510 436906402#0 436906402#1 436906402#2 437374507 437374503#0 437374503#1 437374503#2 437374503#3 437374503#4 436906386#0 436906386#1 436913439 436913438 437375831 381922726 437375833 436913125 437375832 436913130#0 436913130#1 436913132 436913122 436913128 436913120 436913121#0 436913121#1 436913129#0 436913129#1 451834000#0 451834000#1 436913149 436913144#0"/>
    </vehicle>
    <vehicle id="8" depart="8.00">
        <route edges="-5637203 5667221#1 -5634821#2 -5634821#1 -5634821#0 537363954#0 537363954#1 436915425#0 436915425#1 436915415 1063625975 436915454#0 436915454#1 436915466#0 436915466#1 1072409701 436913129#2 1071772052 436915472#0 436915472#1"/>
    </vehicle>
    <vehicle id="9" depart="9.00">
        <route edges="5635008#0 -5635008#0 -5678556#3 -5678556#2 -5622687#0 436913148 436913135 436913152 437375835 436913155 437375836 194869662#0 194869662#1 1071772052 436915472#0 436915472#1 436915472#2 436915443 436915459 436915462#0 436915462#1 537363955 912901988#0 912901988#1 5634821#0 5634821#1 5634821#2 5634821#3 5634821#4 5634821#5 5634821#6 5634821#7 5634821#8 5634821#9 5634821#10 -180616928"/>
    </vehicle>
    <vehicle id="10" depart="10.00">
        <route edges="5634821#7 -5634821#7 -5634821#6 -5634821#5 -5634821#4 -5634821#3 -5634821#2 -5634821#1 -5634821#0 537363954#0 537363954#1 436915425#0 436915425#1 436915415 1063625975 436915454#0 436915454#1 436915466#0 436915466#1 1072409701 451834000#0 451834000#1 436913149 436913144#0 436913144#1 436913168 436913142 436913169 436913139 -5597116 5607271#1 -5646925#0 5691316#1 5596101#0"/>
    </vehicle>
    <vehicle id="11" depart="11.00">
        <route edges="-5686137#0 5692666 -5658506 -912902006#0 912902007 -5634821#7 -5634821#6 -5634821#5 -5634821#4 -5634821#3 -5634821#2 -5634821#1 -5634821#0 537363954#0 537363954#1 436915425#0 436915425#1 436915415 1063625975 436915454#0 436915454#1 436915466#0 436915466#1 1029503782#0 1029503782#1 451834001#0 451834001#1 1029502726 436913127 436913126 436913134 436913123 537398748 436913130#0 5603084 -32993417#2 -5592525 -5617454#1"/>
    </vehicle>
    <vehicle id="12" depart="12.00">
        <route edges="5692951#1 5692951#2 5617525 -436915475 1063625975 436915454#0 436915454#1 436915466#0 436915466#1 1029503782#0 1029503782#1 451834001#0 451834001#1 1029502726 436913127 436913126 436913134 436913123 5639548#0 5639548#1 5639548#2 436913124 915954385 -316903847#5 5686144 -5686144"/>
    </vehicle>
    <vehicle id="13" depart="13.00">
        <route edges="-5591416#1 1123057071 537398748 537398747 5625002#0 5625002#1 5685538#1 5685538#2 5629857#1 -5646925#2 5592526 -5592526"/>
    </vehicle>
    <vehicle id="14" depart="14.00">
        <route edges="5647019#1 5647019#2 -5607277 -5596101#0 -5691316#1 5646925#0 -5607271#1 5597116 912901991 436913148 436913135 436913152 437375835 436913155 437375836 194869662#0 194869662#1 1071772052 1072124111 1029503782#0 1029503782#1 451834001#0 451834001#1 1029502726 436913127 436913126 436913134 436913123 5639548#0 5639548#1 5639548#2 436913124 436913131 436906383 1029310823#0 1029310823#1 1029310823#2 1029310824 436906400 436906380 436906388#0 436906388#1 981535795#0 981535795#1 529474815 529474814 529474816 436920021 436920044#0 436920044#1 436920039#0 436920039#1 436920039#2 436920013 5589185 436920033 436920046#0 436920046#1"/>
    </vehicle>
    <vehicle id="15" depart="15.00">
        <route edges="5634821#8 -5634821#8 -5634821#7 -5634821#6 -5634821#5 -5634821#4 -5634821#3 -5634821#2 -5634821#1 -5634821#0 537363954#0 537363954#1 -537363955 -5658976#4 -5658976#3 -5658976#2 -5658976#1 -5599135#2 -5599135#1 -5684434 5631818#1 5597696"/>
    </vehicle>
    <vehicle id="16" depart="16.00">
        <route edges="436913129#1 436913129#2 1071772052 1072124111 1029503782#0 1029503782#1 451834001#0 451834001#1 1029502726 436913127 436913126 436913134 436913123 5639548#0 5639548#1 5639548#2 436913124 436913131 436906383 1029310823#0 1029310823#1 1029310823#2 1029310824 436906400 436906380 436906388#0 436906388#1 981535795#0 981535795#1 529474815 529474814 529474816 436920021 436920044#0 436920044#1 436920039#0 436920039#1 436920039#2 436920013 5589185 727671583 727671581 727671580#0 727671580#1 727671580#2 727671580#3"/>
    </vehicle>
    <vehicle id="17" depart="17.00">
        <route edges="-727671580#4 -727671580#3 -727671580#2 -727671580#1 -727671580#0 727671582 436920033 436920046#0 436920046#1 436920053#0 436920053#1 436920053#2 436907161 436907162#0 436907162#1 437374510 436906402#0 436906402#1 436906402#2 437374507 437374503#0 437374503#1 437374503#2 437374503#3 437374503#4 436906386#0 436906386#1 436913439 436913438 437375831 381922726 437375833 436913125 437375832 436913130#0 436913130#1 436913132 436913122 436913128 436913120 436913121#0 436913121#1 436913129#0 436913129#1 451834000#0 451834000#1 436913149 436913144#0 436913144#1 436913168 436913142 436913169 436913139 912901991 436913148 436913135 436913152"/>
    </vehicle>
    <vehicle id="18" depart="18.00">
        <route edges="5644904#1 -5686137#2 -912902006#2 -912902006#1 -912902006#0 912902007 5634821#8 5634821#9 5634821#10 5634821#11 5634821#12 5634821#13 537363956 537363957#0 537363957#1 537363957#2 436920053#0 436920053#1 436920053#2 436907161 436907162#0 436907162#1 437374510 436906402#0 436906402#1 436906402#2 437374507 437374503#0 437374503#1 437374503#2 437374503#3 437374503#4"/>
    </vehicle>
    <vehicle id="19" depart="19.00">
        <route edges="5655340#1 -5655340#1 -5634821#4 -5634821#3 -5634821#2 -5634821#1 -5634821#0 537363954#0 537363954#1 436915425#0 436915425#1 436915415 1063625975 436915454#0 436915454#1 436915466#0 436915466#1 1072409701 436913129#2 1071772052 436915472#0 436915472#1 436915472#2 436915443"/>
    </vehicle>
    <vehicle id="20" depart="20.00">
        <route edges="5596377#0 -5655340#2 -5655340#1 5634821#5 5634821#6 5634821#7 5634821#8 5634821#9 316903847#4 316903847#5 915954384 32993246#0 437375831 381922726 33002194 -33002194"/>
    </vehicle>
    <vehicle id="21" depart="21.00">
        <route edges="-5637745#1 5637745#1 -5597108#8 -5597108#7 -5597108#6 -5597108#5 -5690607#2 5597238 -5661107#1"/>
    </vehicle>
    <vehicle id="22" depart="22.00">
        <route edges="-5589199#2 5589199#2 -5637746#1 -5637746#0 5634821#9 316903847#4 316903847#5 915954384 32993246#0 32993246#1 32993246#2 5625002#3 -5684207#3 -5637745#3 5646904#0 -5646904#0"/>
    </vehicle>
    <vehicle id="23" depart="23.00">
        <route edges="-5592526 -5646925#1 -5607271#1 5597116 912901991 436913148 436913135 436913152 437375835 436913155 437375836 194869662#0 194869662#1 1071772052 436915472#0 436915472#1 436915472#2 436915443 436915459 436915462#0 436915462#1 -5658976#4"/>
    </vehicle>
    <vehicle id="24" depart="24.00">
        <route edges="451808273#0 451808273#1 436913179#0 436913179#1 1072124111 1029503782#0 1029503782#1 451834001#0 451834001#1 1029502726 436913127 436913126 436913134 436913123 5639548#0 5639548#1 5639548#2 436913124 436913131 436906383 1029310823#0 1029310823#1 1029310823#2 1029310824 436906400 436906380 436906388#0 436906388#1 981535795#0 981535795#1 529474815 529474814 529474816 436920021 436920044#0 436920044#1 436920039#0 436920039#1 436920039#2 436920013 5589185 727671583 727671581 727671580#0 727671580#1 727671580#2 727671580#3 727671580#4 -727671580#4 -727671580#3 -727671580#2 -727671580#1 -727671580#0"/>
    </vehicle>
    <vehicle id="25" depart="25.00">
        <route edges="-5695444 5695444 5658976#2 5658976#3 5658976#4 537363955 912901988#0 912901988#1 5634821#0 5634821#1 5634821#2 5634821#3 5634821#4 5634821#5 5634821#6 5634821#7 5634821#8 5634821#9 -5634821#9"/>
    </vehicle>
    <vehicle id="26" depart="26.00">
        <route edges="-5654965 -5655564 -5658510#1 5655340#0 5634821#5 5634821#6 5634821#7 912902008 912902006#0 5658506 -5692666 5686137#0"/>
    </vehicle>
    <vehicle id="27" depart="27.00">
        <route edges="529474814 529474816 436920021 436920044#0 436920044#1 436920039#0 436920039#1 436920039#2 436920013 436920060#0 436920060#1"/>
    </vehicle>
    <vehicle id="28" depart="28.00">
        <route edges="-5619056#0 5694361#1 -5686144 -316903847#4 -5634821#9 -5634821#8 -5634821#7 -5634821#6 -5634821#5 -5634821#4 -5634821#3 -5634821#2 -5634821#1 -5634821#0 537363954#0 537363954#1 -537363955 -5658976#4 -5658976#3 -5658976#2 -5658976#1 -5599135#2 -5599135#1 -5684434 5631818#1 5597696"/>
    </vehicle>
    <vehicle id="29" depart="29.00">
        <route edges="-5617503#0 5599132#0 5599132#1 -203938009#0 -1072124110 451808273#0 451808273#1 436913179#0 436913179#1 1072124111 1072409701 451834000#0 451834000#1 436913149 436913144#0 436913144#1 436913168 436913142 436913169 436913139 912901991 -912901991"/>
    </vehicle>
    <vehicle id="31" depart="31.00">
        <route edges="436913155 437375836 194869662#0 194869662#1 1071772052 1072124111 1029503782#0 1029503782#1 451834001#0 451834001#1 1029502726 436913127 436913126 436913134 436913123 5654970 5591416#2"/>
    </vehicle>
    <vehicle id="32" depart="32.00">
        <route edges="5647014#2 5654961#0 5654961#1 5654961#2 5654961#3 5684207#0 -5680362 -5685538#1 5625002#2 5625002#3"/>
    </vehicle>
    <vehicle id="33" depart="33.00">
        <route edges="-5637745#2 -5597108#8 -537398749 -5625002#4 -5625002#3 -32993246#2 -32993246#1 -32993246#0 915954385 -316903847#5 1119767533 32352756#2 32352756#3 -180616924#1 180616924#1 -32352756#3"/>
    </vehicle>
    <vehicle id="34" depart="34.00">
        <route edges="-5667221#0 -5609086#0 -5634821#3 -5634821#2 -5634821#1 -5634821#0 537363954#0 537363954#1 -537363955 -5658976#4 -5658976#3 -5658976#2 -5658976#1 -5599135#2 -5599135#1 -5599135#0 -5658349#3 -5658349#2"/>
    </vehicle>
    <vehicle id="35" depart="35.00">
        <route edges="-5634821#3 -5634821#2 -5634821#1 -5634821#0 537363954#0 537363954#1 436915425#0 436915425#1 436915415 1063625975 436915454#0 436915454#1 436915466#0 436915466#1 1029503782#0 1029503782#1 451834001#0 451834001#1 1029502726 436913127 436913126 436913134 436913123 537398748 537398747 5625002#0 5625002#1 5625002#2 5625002#3 5625002#4 537398749 5597108#8 -5637745#1 5596099#0 5688454#0"/>
    </vehicle>
    <vehicle id="36" depart="36.00">
        <route edges="5658976#0 5658976#1 5658976#2 5658976#3 5658976#4 537363955 436915425#0 436915425#1 436915415 1063625975 436915454#0 436915454#1 436915466#0 436915466#1 1072409701 451834000#0 451834000#1 436913149 436913144#0 436913144#1 436913168 436913142 436913169 436913139 912901991 5622687#0 5678556#2 5678556#3 5635008#0 -5635008#0 -5678556#3"/>
    </vehicle>
    <vehicle id="37" depart="37.00">
        <route edges="537363956 537363957#0 537363957#1 537363957#2 436920053#0 436920053#1 436920053#2 436907161 436907162#0 436907162#1 437374510 436906402#0 436906402#1 436906402#2 437374507 437374503#0 437374503#1 437374503#2 437374503#3 437374503#4 436906386#0 436906386#1 436913439 436913438 437375831 381922726 437375833 436913125 437375832 436913130#0 436913130#1 436913132 436913122 436913128 436913120 436913121#0 436913121#1 436913129#0 436913129#1 436913129#2 1071772052 1072124111"/>
    </vehicle>
    <vehicle id="38" depart="38.00">
        <route edges="5678556#0 5678556#1 -5622687#0 436913148 436913135 436913152 437375835 436913155 437375836 194869662#0 194869662#1 1071772052 1072124111 1029503782#0 1029503782#1 451834001#0 451834001#1 1029502726 436913127 436913126 436913134 436913123 537398748 537398747 5625002#0 5625002#1 -5685538#0 5596757#1 378596810#0 378596810#1"/>
    </vehicle>
    <vehicle id="39" depart="39.00">
        <route edges="-5654961#2 5654961#2 5654961#3 5684207#0 -5680362 5685538#2 5629857#1 -5646925#2 5592526 -5596101#1 5607277 -5647019#2 -5647019#1"/>
    </vehicle>
    <vehicle id="40" depart="40.00">
        <route edges="436913174#0 436913174#1 436913138 436913153 436913148 436913135 436913152 437375835 436913155 437375836 194869662#0 194869662#1 1071772052 1072124111 1029503782#0 1029503782#1 451834001#0 451834001#1 1029502726 436913127 436913126 436913134 436913123 537398748 537398747 5625002#0 5656269#0 -5656269#0"/>
    </vehicle>
    <vehicle id="41" depart="41.00">
        <route edges="436915454#1 436915466#0 436915466#1 1029503782#0 1029503782#1 451834001#0 451834001#1 1029502726 436913127 436913126 436913134 436913123 5639548#0 5639548#1 5639548#2 436913124 32993246#0 32993246#1 5690607#0 5661107#1"/>
    </vehicle>
    <vehicle id="42" depart="42.00">
        <route edges="1063625975 436915454#0 436915454#1 436915466#0 436915466#1 1029503782#0 1029503782#1 451834001#0 451834001#1 1029502726 436913127 436913126 436913134 436913123 537398748 537398747 5625002#0 5625002#1 5625002#2 5625002#3 -5684207#3 -5637745#3 -5637745#2"/>
    </vehicle>
    <vehicle id="43" depart="43.00">
        <route edges="980967444#1 437374509 436907163 436906421 436906405 436906413#0 436906413#1 436906445#0"/>
    </vehicle>
    <vehicle id="44" depart="44.00">
        <route edges="-5591416#0 -5633339#0 5639548#1 5639548#2 436913124 915954385 -316903847#5 -316903847#4 -5634821#9 5637746#0 5637746#1 -5589199#2 -378596808"/>
    </vehicle>
    <vehicle id="45" depart="45.00">
        <route edges="-5596377#0 -5637746#3 -5637746#2 -5637746#1 -5637746#0 -5634821#8 -5634821#7 -5634821#6 -5634821#5 -5634821#4 -5634821#3 -5634821#2 -5634821#1 -5634821#0 537363954#0 537363954#1 436915425#0 436915425#1 436915415 1063625975 436915454#0 436915454#1 436915466#0 436915466#1 1072409701 451834000#0 451834000#1 436913149 436913144#0 436913144#1 436913168 436913142 436913187 437375835 436913155 437375836"/>
    </vehicle>
    <vehicle id="46" depart="46.00">
        <route edges="5633343 -5647014#1 -5647014#0 5637745#0 5637745#1 -5597108#8 -5597108#7 -5597108#6 -5597108#5 -5597108#4 -5597108#3 -5597108#2 -5597108#1 -5597108#0 436906445#0 436906445#1 436906445#2 436906445#3 315565341 1119774642 678356401#0 216970588"/>
    </vehicle>
    <vehicle id="47" depart="47.00">
        <route edges="-537363955 537363955 912901988#0 912901988#1 5634821#0 5634821#1 5634821#2 5634821#3 5634821#4 5634821#5 5634821#6 5634821#7 912902008 912902006#0 912902006#1 -912902006#1"/>
    </vehicle>
    <vehicle id="48" depart="48.00">
        <route edges="980967444#0 980967444#1 437374509 436907163 436906421 436906405 436906413#0 436906413#1 5597108#0 436906419 436906437 436906423 436906414 436906412 436906434#0 436906434#1 436906402#1 436906402#2 437374507 437374503#0 437374503#1 437374503#2 437374503#3 437374503#4 436906386#0 436906386#1 436913439 436913438 437375831 381922726 437375833 436913125 437375832 436913130#0 436913130#1 436913132 436913122 436913128 436913120 436913121#0 436913121#1 436913129#0 436913129#1 436913129#2 1071772052 1072124111 1029503782#0 1029503782#1 451834001#0 451834001#1 1029502726 436913127 436913126"/>
    </vehicle>
    <vehicle id="49" depart="49.00">
        <route edges="727671580#3 727671580#4 -727671580#4 -727671580#3 -727671580#2 -727671580#1 -727671580#0 727671582 436920033 436920046#0 436920046#1 436920053#0 436920053#1 436920053#2 436907161 436907162#0 436907162#1 437374510 436906402#0 436906402#1 436906402#2 437374507 437374503#0 437374503#1 437374503#2 437374503#3 437374503#4 436906386#0 436906386#1 436913439 436913438 437375831 381922726 437375833 436913125 437375832 537398747 5625002#0 5625002#1 5685538#1 5680362 -5684207#0 -5654961#3 5654961#3"/>
    </vehicle>
    <vehicle id="50" depart="50.00">
        <route edges="-203938009#0 -1072124110 451808273#0 451808273#1 436913179#0 436913179#1 1072124111 1029503782#0 1029503782#1 451834001#0 451834001#1 1029502726 436913127 436913126 436913134 436913123 537398748 537398747 5625002#0 5625002#1 5625002#2 5625002#3 5625002#4 537398749 5597108#8"/>
    </vehicle>
    <vehicle id="51" depart="51.00">
        <route edges="5590402#1 5590402#2 5634821#12 5634821#13 537363956 537363957#0 537363957#1 537363957#2 436920053#0 436920053#1 436920053#2 436907161 436907162#0 436907162#1 437374510 436906402#0 436906402#1 436906402#2 437374507 437374503#0 437374503#1 437374503#2 437374503#3 437374503#4 436906386#0 436906386#1 436913439 436913438 437375831 381922726 437375833 436913125 437375832 436913130#0 436913130#1"/>
    </vehicle>
    <vehicle id="53" depart="53.00">
        <route edges="-5596377#1 -5655340#2 -5655340#1 5634821#5 5634821#6 5634821#7 5634821#8 5634821#9 5634821#10 32352725#0 32352725#1"/>
    </vehicle>
    <vehicle id="54" depart="54.00">
        <route edges="32993246#0 437375831 381922726 437375833 436913125 437375832 436913130#0 436913130#1 436913132 436913122 436913128 436913120 436913121#0 436913121#1 436913129#0 436913129#1 451834000#0 451834000#1 436913149 436913144#0 436913144#1 436913168 436913142 436913169 436913139 912901991 5622687#0 5678556#2 5692421#0 5692421#1"/>
    </vehicle>
    <vehicle id="55" depart="55.00">
        <route edges="5658510#1 5655564 5654965 -5607276#1 -5607276#0 -5634821#2 -5634821#1 -5634821#0 537363954#0 537363954#1 436915425#0 436915425#1 436915415 1063625975 436915454#0 436915454#1 436915466#0 436915466#1 1029503782#0 1029503782#1 451834001#0 451834001#1 1029502726 436913127 436913126 436913134 436913123 537398748 537398747 5625002#0 5656269#0 -5656269#0"/>
    </vehicle>
    <vehicle id="56" depart="56.00">
        <route edges="436906430#1 436906430#2 436906430#3 436906430#4 436906430#5 436906430#6 436906430#7 436906420#0 436906420#1 5597108#1 5597108#2 5597108#3 5597108#4 5597108#5 5597108#6 5597108#7 -537398749 -5625002#4 -5625002#3"/>
    </vehicle>
    <vehicle id="57" depart="57.00">
        <route edges="5677495 5658349#3 5599135#0 5599135#1 5599135#2 5658976#1 5658976#2 5658976#3 5658976#4 537363955 436915425#0 436915425#1 436915415 1063625975 436915454#0 436915454#1 436915466#0 436915466#1 1029503782#0 1029503782#1 451834001#0 451834001#1 1029502726 436913127 436913126 436913134 436913123 537398748 537398747 5625002#0 5656269#0"/>
    </vehicle>
    <vehicle id="58" depart="58.00">
        <route edges="-5659242#4 -5659242#3 -5661899 5678556#1 -5622687#0 436913148 436913135 436913152 437375835 436913155 437375836 194869662#0 194869662#1 1071772052 1072124111 1029503782#0 1029503782#1 451834001#0 451834001#1"/>
    </vehicle>
    <vehicle id="59" depart="59.00">
        <route edges="436920053#0 436920053#1 436920053#2 436907161 436907162#0 436907162#1 437374510 980967444#0 980967444#1 437374509 436907163 436906421 436906405 436906413#0 436906413#1 5597108#0 5597108#1 5590399#0 5590399#1 -5614902#1"/>
    </vehicle>
    <vehicle id="60" depart="60.00">
        <route edges="5619053#3 -5607274#0 -5591416#3 -5591416#2 -5591416#1 1123057071 537398748 436913130#0 436913130#1 436913132 436913122 436913185 436913134"/>
    </vehicle>
    <vehicle id="61" depart="61.00">
        <route edges="5626700 -5590400#1 -5590400#0 -5597108#2 -5597108#1 436906419 436906437 436906423 436906414 436906412 436906434#0 436906434#1 436906402#1 436906402#2 437374507 437374503#0 437374503#1 437374503#2 437374503#3 437374503#4 436906386#0 436906386#1 436913439 436913438 437375831 381922726 437375833 436913125 437375832 436913130#0 436913130#1 436913132 436913122 436913128 436913120 436913121#0 436913121#1 436913129#0 436913129#1 436913129#2 1071772052 1072124111 1029503782#0 1029503782#1 451834001#0 451834001#1 1029502726 436913127"/>
    </vehicle>
    <vehicle id="62" depart="62.00">
        <route edges="-1072124110 451808273#0 451808273#1 436913179#0 436913179#1 1072124111 1029503782#0 1029503782#1 451834001#0 451834001#1 1029502726 436913127 436913126 436913134 436913123 537398748 537398747 5625002#0 5625002#1 5625002#2 5625002#3 -5684207#3"/>
    </vehicle>
    <vehicle id="63" depart="63.00">
        <route edges="-316903847#0 316903847#0 316903847#1 316903847#2 316903847#3 316903847#4 316903847#5 915954384 32993246#0 437375831 381922726 437375833 436913125 437375832 537398747 5625002#0 5625002#1 5685538#1 5680362 5684207#1 5684207#2"/>
    </vehicle>
    <vehicle id="64" depart="64.00">
        <route edges="5658976#2 5658976#3 5658976#4 537363955 436915425#0 436915425#1 436915415 1063625975 436915454#0 436915454#1 436915466#0 436915466#1 1072409701 451834000#0 451834000#1 436913149 436913144#0 436913144#1 436913168 436913142 436913169 436913139 -5597116 5607271#1 -5646925#0 5691316#1 5596101#0 5607277 -5647019#2 -5647019#1 5643417"/>
    </vehicle>
    <vehicle id="66" depart="66.00">
        <route edges="5658976#1 5658976#2 5658976#3 5658976#4 537363955 436915425#0 436915425#1 436915415 1063625975 436915454#0 436915454#1 436915466#0 436915466#1 1029503782#0 1029503782#1 451834001#0 451834001#1 1029502726 436913127 436913126 436913134 436913123 5639548#0 5639548#1 5639548#2 436913124 32993246#0 32993246#1 5690607#0 5690607#1"/>
    </vehicle>
    <vehicle id="67" depart="67.00">
        <route edges="-5590400#0 -5597108#2 -5597108#1 436906419 436906437 451602301 436907163 436906421 436906405"/>
    </vehicle>
    <vehicle id="68" depart="68.00">
        <route edges="-537398751#0 -537398750 -537398749 -5625002#4 -5625002#3 -5625002#2 -5625002#1 -5625002#0 -537398747 -537398748 5654970 5591416#2 -5674098 5619053#2"/>
    </vehicle>
    <vehicle id="69" depart="69.00">
        <route edges="5619056#2 5644907 -5591417#1 5601599 5639548#2 436913124 32993246#0 437375831 381922726 437375833 436913125 437375832 537398747 5625002#0 5656269#0 -5617454#0 5597222#0 -5597222#0"/>
    </vehicle>
    <vehicle id="70" depart="70.00">
        <route edges="436906387 436906381 436906392#0 436906392#1 436906402#0 436906402#1 436906402#2 437374507 437374503#0 437374503#1 437374503#2 437374503#3 437374503#4 436906386#0 436906386#1 436913439 436913438 437375831 381922726 437375833 436913125 437375832 436913130#0 436913130#1 436913132 436913122 436913128 436913120 436913121#0 436913121#1 436913129#0 436913129#1 451834000#0 451834000#1 436913149"/>
    </vehicle>
    <vehicle id="71" depart="71.00">
        <route edges="-5654961#2 5654961#2 5654961#3 5684207#0 -5680362 -5685538#1 -5625002#1 5656269#0 5656269#1"/>
    </vehicle>
    <vehicle id="72" depart="72.00">
        <route edges="203938009#0 -203938009#0 -1072124110 451808273#0 451808273#1 436913179#0 436913179#1 1072124111 1072409701 451834000#0 451834000#1 436913149 436913144#0 436913144#1 436913168 436913142 436913169 436913139 912901991 5622687#0 5678556#2 5692421#0 5692421#1 -5659242#0 -5635008#1"/>
    </vehicle>
    <vehicle id="73" depart="73.00">
        <route edges="436913130#0 436913130#1 436913132 436913122 436913128 436913120 436913121#0 436913121#1 436913129#0 436913129#1 436913129#2 436913180#0 436913180#1 436913176 436913182 1072124110 203938009#0 -5599132#1 -5599132#0 5599132#0"/>
    </vehicle>
    <vehicle id="74" depart="74.00">
        <route edges="-5633339#2 -5633339#1 5591416#0 1123057071 537398748 436913130#0 436913130#1 436913132 436913122 436913128 436913120 436913121#0 436913121#1 436913129#0 436913129#1 451834000#0 451834000#1 436913149 436913144#0 436913144#1 436913168 436913142 436913169 436913139 912901991 5622687#0 -5678556#1 -5678556#0"/>
    </vehicle>
    <vehicle id="75" depart="75.00">
        <route edges="915954385 -316903847#5 -316903847#4 -5634821#9 -5634821#8 -5634821#7 -5634821#6 -5634821#5 -5634821#4 -5634821#3 -5634821#2 -5634821#1 -5634821#0 537363954#0 537363954#1"/>
    </vehicle>
    <vehicle id="76" depart="76.00">
        <route edges="316903847#5 915954384 436913131 436906383 1029310823#0 1029310823#1 1029310823#2 1029310824 436906400 436906380 436906388#0 436906388#1 981535795#0 981535795#1 529474815 529474814 529474816 436920021 436920044#0 436920044#1 436920039#0 537363957#2 436920053#0 436920053#1 436920053#2 436907161 436907162#0"/>
    </vehicle>
    <vehicle id="77" depart="77.00">
        <route edges="-5597108#1 436906419 436906437 436906423 436906414 436906412 436906434#0 436906434#1 436920068 981535795#0 981535795#1 529474815 529474814 529474816 436920021 436920044#0 436920044#1 524337675#1 524337675#2 -5634821#13 -5634821#12 -5634821#11 -5634821#10 -5634821#9 5637746#0 5637746#1 5637746#2 5637746#3 -5637746#3 -5637746#2"/>
    </vehicle>
    <vehicle id="78" depart="78.00">
        <route edges="-5685538#1 -5625002#1 -5625002#0 -537398747 436913130#0 436913130#1 436913132 436913122 436913128 436913120 436913121#0 436913121#1 436913129#0 436913129#1 436913129#2 1071772052 436915472#0"/>
    </vehicle>
    <vehicle id="79" depart="79.00">
        <route edges="-5637745#3 -5637745#2"/>
    </vehicle>
    <vehicle id="80" depart="80.00">
        <route edges="-537398752#0 -537398751#1 -537398751#0 -537398750 -537398749 -5625002#4 -5625002#3 -5625002#2 -5625002#1 -5625002#0 -537398747 -537398748 5639548#0 5639548#1 5639548#2 436913124 436913131 436906383 1029310823#0 1029310823#1 1029310823#2 1029310824 436906400 436906380 436906388#0 436906388#1 981535795#0 981535795#1 529474815 529474814 529474816 436920021 436920044#0 436920044#1 436920039#0 537363957#2 436920053#0 436920053#1 451797267"/>
    </vehicle>
    <vehicle id="81" depart="81.00">
        <route edges="-5637745#2 -5597108#8 -537398749 -5625002#4 -5625002#3 -5625002#2 -5625002#1 -5625002#0 -537398747 -537398748 5639548#0 5639548#1 5639548#2 436913124 436913131 436906383 1029310823#0 5664300#0 5664300#1 5664300#2"/>
    </vehicle>
    <vehicle id="82" depart="82.00">
        <route edges="5654970 -5591416#1 1123057071 537398748 537398747 5625002#0 5625002#1 5625002#2 5625002#3 5625002#4 537398749 537398750 537398751#0 537398751#1 537398752#0 537398752#1 537398752#2 537398753 -537398753 -537398752#2"/>
    </vehicle>
    <vehicle id="83" depart="83.00">
        <route edges="-5644904#0 -5658505 5633336#1 -5634821#5 5655340#1 5589199#0"/>
    </vehicle>
    <vehicle id="84" depart="84.00">
        <route edges="-5634821#6 -5634821#5 -5634821#4 -5634821#3 -5634821#2 -5634821#1 -5634821#0 537363954#0 537363954#1 -537363955 -5658976#4 -5658976#3 -5658976#2 -5695444 -5597694#0"/>
    </vehicle>
    <vehicle id="85" depart="85.00">