<?xml version="1.0" encoding="UTF-8"?>

<!-- generated on 2024-11-05 11:05:25.216563 by randomTrips.py v1_21_0+0000-d7b3b481c43
<configuration>
    <net-file value="ChandlerAZ.net.xml"/>
    <output-trip-file value="ChandlerAZ.trips.xml"/>
    <validate value="True"/>
    <end value="1000.0"/>
</configuration>
-->

<!-- generated on 2024-11-05 11:05:25 by Eclipse SUMO duarouter Version 1.21.0
<duarouterConfiguration xmlns:xsi="http://www.w3.org/2001/XMLSchema-instance" xsi:noNamespaceSchemaLocation="http://sumo.dlr.de/xsd/duarouterConfiguration.xsd">

    <input>
        <net-file value="ChandlerAZ.net.xml"/>
        <route-files value="ChandlerAZ.trips.xml"/>
    </input>

    <output>
        <output-file value="ChandlerAZ.trips.xml.tmp"/>
        <alternatives-output value="NUL"/>
        <write-trips value="true"/>
    </output>

    <time>
        <begin value="0"/>
        <end value="1000.0"/>
    </time>

    <report>
        <no-warnings value="true"/>
        <ignore-errors value="true"/>
        <no-step-log value="true"/>
    </report>

</duarouterConfiguration>
-->

<routes xmlns:xsi="http://www.w3.org/2001/XMLSchema-instance" xsi:noNamespaceSchemaLocation="http://sumo.dlr.de/xsd/routes_file.xsd">
    <trip id="0" depart="0.00" from="451834000#1" to="-32352725#0"/>
    <trip id="1" depart="1.00" from="-5656269#0" to="-5637746#1"/>
    <trip id="2" depart="2.00" from="5599135#1" to="5590400#0"/>
    <trip id="3" depart="3.00" from="5661107#1" to="-5591416#0"/>
    <trip id="4" depart="4.00" from="194869677#1" to="-32352756#1"/>
    <trip id="5" depart="5.00" from="-5635008#0" to="436906433#1"/>
    <trip id="6" depart="6.00" from="-32352725#0" to="-5634821#11"/>
    <trip id="7" depart="7.00" from="529474815" to="436913144#0"/>
    <trip id="8" depart="8.00" from="-5637203" to="436915472#1"/>
    <trip id="9" depart="9.00" from="5635008#0" to="-180616928"/>
    <trip id="10" depart="10.00" from="5634821#7" to="5596101#0"/>
    <trip id="11" depart="11.00" from="-5686137#0" to="-5617454#1"/>
    <trip id="12" depart="12.00" from="5692951#1" to="-5686144"/>
    <trip id="13" depart="13.00" from="-5591416#1" to="-5592526"/>
    <trip id="14" depart="14.00" from="5647019#1" to="436920046#1"/>
    <trip id="15" depart="15.00" from="5634821#8" to="5597696"/>
    <trip id="16" depart="16.00" from="436913129#1" to="727671580#3"/>
    <trip id="17" depart="17.00" from="-727671580#4" to="436913152"/>
    <trip id="18" depart="18.00" from="5644904#1" to="437374503#4"/>
    <trip id="19" depart="19.00" from="5655340#1" to="436915443"/>
    <trip id="20" depart="20.00" from="5596377#0" to="-33002194"/>
    <trip id="21" depart="21.00" from="-5637745#1" to="-5661107#1"/>
    <trip id="22" depart="22.00" from="-5589199#2" to="-5646904#0"/>
    <trip id="23" depart="23.00" from="-5592526" to="-5658976#4"/>
    <trip id="24" depart="24.00" from="451808273#0" to="-727671580#0"/>
    <trip id="25" depart="25.00" from="-5695444" to="-5634821#9"/>
    <trip id="26" depart="26.00" from="-5654965" to="5686137#0"/>
    <trip id="27" depart="27.00" from="529474814" to="436920060#1"/>
    <trip id="28" depart="28.00" from="-5619056#0" to="5597696"/>
    <trip id="29" depart="29.00" from="-5617503#0" to="-912901991"/>
    <trip id="31" depart="31.00" from="436913155" to="5591416#2"/>
    <trip id="32" depart="32.00" from="5647014#2" to="5625002#3"/>
    <trip id="33" depart="33.00" from="-5637745#2" to="-32352756#3"/>
    <trip id="34" depart="34.00" from="-5667221#0" to="-5658349#2"/>
    <trip id="35" depart="35.00" from="-5634821#3" to="5688454#0"/>
    <trip id="36" depart="36.00" from="5658976#0" to="-5678556#3"/>
    <trip id="37" depart="37.00" from="537363956" to="1072124111"/>
    <trip id="38" depart="38.00" from="5678556#0" to="378596810#1"/>
    <trip id="39" depart="39.00" from="-5654961#2" to="-5647019#1"/>
    <trip id="40" depart="40.00" from="436913174#0" to="-5656269#0"/>
    <trip id="41" depart="41.00" from="436915454#1" to="5661107#1"/>
    <trip id="42" depart="42.00" from="1063625975" to="-5637745#2"/>
    <trip id="43" depart="43.00" from="980967444#1" to="436906445#0"/>
    <trip id="44" depart="44.00" from="-5591416#0" to="-378596808"/>
    <trip id="45" depart="45.00" from="-5596377#0" to="437375836"/>
    <trip id="46" depart="46.00" from="5633343" to="216970588"/>
    <trip id="47" depart="47.00" from="-537363955" to="-912902006#1"/>
    <trip id="48" depart="48.00" from="980967444#0" to="436913126"/>
    <trip id="49" depart="49.00" from="727671580#3" to="5654961#3"/>
    <trip id="50" depart="50.00" from="-203938009#0" to="5597108#8"/>
    <trip id="51" depart="51.00" from="5590402#1" to="436913130#1"/>
    <trip id="53" depart="53.00" from="-5596377#1" to="32352725#1"/>
    <trip id="54" depart="54.00" from="32993246#0" to="5692421#1"/>
    <trip id="55" depart="55.00" from="5658510#1" to="-5656269#0"/>
    <trip id="56" depart="56.00" from="436906430#1" to="-5625002#3"/>
    <trip id="57" depart="57.00" from="5677495" to="5656269#0"/>
    <trip id="58" depart="58.00" from="-5659242#4" to="451834001#1"/>
    <trip id="59" depart="59.00" from="436920053#0" to="-5614902#1"/>
    <trip id="60" depart="60.00" from="5619053#3" to="436913134"/>
    <trip id="61" depart="61.00" from="5626700" to="436913127"/>
    <trip id="62" depart="62.00" from="-1072124110" to="-5684207#3"/>
    <trip id="63" depart="63.00" from="-316903847#0" to="5684207#2"/>
    <trip id="64" depart="64.00" from="5658976#2" to="5643417"/>
    <trip id="66" depart="66.00" from="5658976#1" to="5690607#1"/>
    <trip id="67" depart="67.00" from="-5590400#0" to="436906405"/>
    <trip id="68" depart="68.00" from="-537398751#0" to="5619053#2"/>
    <trip id="69" depart="69.00" from="5619056#2" to="-5597222#0"/>
    <trip id="70" depart="70.00" from="436906387" to="436913149"/>
    <trip id="71" depart="71.00" from="-5654961#2" to="5656269#1"/>
    <trip id="72" depart="72.00" from="203938009#0" to="-5635008#1"/>
    <trip id="73" depart="73.00" from="436913130#0" to="5599132#0"/>
    <trip id="74" depart="74.00" from="-5633339#2" to="-5678556#0"/>
    <trip id="75" depart="75.00" from="915954385" to="537363954#1"/>
    <trip id="76" depart="76.00" from="316903847#5" to="436907162#0"/>
    <trip id="77" depart="77.00" from="-5597108#1" to="-5637746#2"/>
    <trip id="78" depart="78.00" from="-5685538#1" to="436915472#0"/>
    <trip id="79" depart="79.00" from="-5637745#3" to="-5637745#2"/>
    <trip id="80" depart="80.00" from="-537398752#0" to="451797267"/>
    <trip id="81" depart="81.00" from="-5637745#2" to="5664300#2"/>
    <trip id="82" depart="82.00" from="5654970" to="-537398752#2"/>
    <trip id="83" depart="83.00" from="-5644904#0" to="5589199#0"/>
    <trip id="84" depart="84.00" from="-5634821#6" to="-5597694#0"/>
    <trip id="85" depart="85.00" from="5686137#2" to="436913439"/>
    <trip id="86" depart="86.00" from="436906383" to="5630298"/>
    <trip id="87" depart="87.00" from="5634821#9" to="-5633336#1"/>
    <trip id="88" depart="88.00" from="-5591417#1" to="316903847#4"/>
    <trip id="89" depart="89.00" from="203938009#0" to="436906380"/>
    <trip id="90" depart="90.00" from="5597240" to="5590398"/>
    <trip id="92" depart="92.00" from="1072124111" to="-5688454#1"/>
    <trip id="93" depart="93.00" from="5655340#1" to="-5653875#0"/>
    <trip id="94" depart="94.00" from="-5629857#0" to="32993246#0"/>
    <trip id="95" depart="95.00" from="194869677#1" to="-5658976#4"/>
    <trip id="96" depart="96.00" from="-5646925#2" to="5680147#0"/>
    <trip id="97" depart="97.00" from="32352756#1" to="5654961#3"/>
    <trip id="98" depart="98.00" from="436913144#1" to="-378596810#2"/>
    <trip id="99" depart="99.00" from="981535795#1" to="5645255#0"/>
    <trip id="100" depart="100.00" from="727671580#2" to="5684207#0"/>
    <trip id="101" depart="101.00" from="5647019#2" to="-5619056#1"/>
    <trip id="102" depart="102.00" from="436906402#0" to="-5637205#0"/>
    <trip id="104" depart="104.00" from="-727671580#5" to="912901988#0"/>
    <trip id="105" depart="105.00" from="-5654961#2" to="5630298"/>
    <trip id="106" depart="106.00" from="32993246#1" to="216970588"/>
    <trip id="107" depart="107.00" from="5692951#1" to="915954385"/>
    <trip id="108" depart="108.00" from="436913153" to="5597108#6"/>
    <trip id="109" depart="109.00" from="-5607277" to="-5664300#2"/>
    <trip id="110" depart="110.00" from="727671580#1" to="436915450#0"/>
    <trip id="111" depart="111.00" from="436913132" to="5609086#0"/>
    <trip id="112" depart="112.00" from="-436913184" to="436915462#0"/>
    <trip id="113" depart="113.00" from="436906430#3" to="5647019#3"/>
    <trip id="114" depart="114.00" from="-5609086#1" to="5692953"/>
    <trip id="115" depart="115.00" from="-5589199#2" to="-5631818#0"/>
    <trip id="116" depart="116.00" from="436915475" to="5590399#0"/>
    <trip id="117" depart="117.00" from="-5637746#4" to="-5597108#3"/>
    <trip id="118" depart="118.00" from="5659244" to="-5647019#1"/>
    <trip id="119" depart="119.00" from="436915472#2" to="437374507"/>
    <trip id="120" depart="120.00" from="194869662#1" to="436915462#0"/>
    <trip id="121" depart="121.00" from="436907163" to="5685538#2"/>
    <trip id="122" depart="122.00" from="-5634821#1" to="5597108#4"/>
    <trip id="123" depart="123.00" from="-5644904#1" to="1072124111"/>
    <trip id="124" depart="124.00" from="5589199#0" to="-5664569#1"/>
    <trip id="125" depart="125.00" from="-5667221#1" to="5614902#1"/>
    <trip id="126" depart="126.00" from="-537398752#1" to="378596810#0"/>
    <trip id="127" depart="127.00" from="981535795#0" to="980967444#0"/>
    <trip id="128" depart="128.00" from="-537398752#2" to="-5637202"/>
    <trip id="129" depart="129.00" from="-5654961#2" to="5685538#0"/>
    <trip id="130" depart="130.00" from="5658976#4" to="5658505"/>
    <trip id="131" depart="131.00" from="-5695440" to="-5617503#1"/>
    <trip id="132" depart="132.00" from="5646604" to="5596377#2"/>
    <trip id="133" depart="133.00" from="436920060#0" to="912901991"/>
    <trip id="134" depart="134.00" from="537363955" to="-194869677#1"/>
    <trip id="135" depart="135.00" from="5637745#1" to="-5664569#1"/>
    <trip id="136" depart="136.00" from="537398751#0" to="5686137#2"/>
    <trip id="137" depart="137.00" from="-5597240" to="-5596757#1"/>
    <trip id="138" depart="138.00" from="-5596101#0" to="436913153"/>
    <trip id="139" depart="139.00" from="-5655340#2" to="436920053#0"/>
    <trip id="140" depart="140.00" from="5597108#3" to="-5634821#3"/>
    <trip id="141" depart="141.00" from="451797267" to="-5656269#1"/>
    <trip id="142" depart="142.00" from="436906405" to="5664300#2"/>
    <trip id="143" depart="143.00" from="5647019#0" to="-5591417#1"/>
    <trip id="144" depart="144.00" from="203938009#0" to="-5658976#2"/>
    <trip id="145" depart="145.00" from="-180616925" to="5622687#1"/>
    <trip id="146" depart="146.00" from="451808273#1" to="-5655564"/>
    <trip id="147" depart="147.00" from="5607271#0" to="436913152"/>
    <trip id="149" depart="149.00" from="-537398753" to="5658976#0"/>
    <trip id="150" depart="150.00" from="5667221#0" to="436913144#0"/>
    <trip id="151" depart="151.00" from="5646904#0" to="436915459"/>
    <trip id="152" depart="152.00" from="-5607271#0" to="-5597222#0"/>
    <trip id="153" depart="153.00" from="-5664300#1" to="5661354"/>
    <trip id="154" depart="154.00" from="5634821#10" to="5654961#3"/>
    <trip id="155" depart="155.00" from="5664300#2" to="-5634821#9"/>
    <trip id="156" depart="156.00" from="-5646925#2" to="-5596099#2"/>
    <trip id="157" depart="157.00" from="5626702" to="5658976#1"/>
    <trip id="158" depart="158.00" from="1119767532" to="437374509"/>
    <trip id="159" depart="159.00" from="-5607277" to="5684207#3"/>
    <trip id="160" depart="160.00" from="5655564" to="727671580#6"/>
    <trip id="161" depart="161.00" from="5637202" to="5658510#0"/>
    <trip id="162" depart="162.00" from="-316903847#5" to="5603084"/>
    <trip id="163" depart="163.00" from="-5684207#1" to="5684431"/>
    <trip id="164" depart="164.00" from="5634821#4" to="5654970"/>
    <trip id="165" depart="165.00" from="5637202" to="-5658349#1"/>
    <trip id="166" depart="166.00" from="5633336#0" to="-5596377#1"/>
    <trip id="167" depart="167.00" from="5658505" to="5654961#1"/>
    <trip id="168" depart="168.00" from="-5637205#0" to="5637661"/>
    <trip id="169" depart="169.00" from="33002194" to="-5674094#0"/>
    <trip id="170" depart="170.00" from="5634821#10" to="-5644904#1"/>
    <trip id="171" depart="171.00" from="-316903847#4" to="-5633339#2"/>
    <trip id="172" depart="172.00" from="-5680147#1" to="5654970"/>
    <trip id="173" depart="173.00" from="727671580#0" to="-5659239"/>
    <trip id="174" depart="174.00" from="451834001#1" to="1119767532"/>
    <trip id="176" depart="176.00" from="5688453" to="-5596757#1"/>
    <trip id="177" depart="177.00" from="727671580#3" to="-5625002#3"/>
    <trip id="178" depart="178.00" from="5694361#1" to="-5658349#0"/>
    <trip id="179" depart="179.00" from="-5596101#1" to="32352725#1"/>
    <trip id="180" depart="180.00" from="5597238" to="-5678556#2"/>
    <trip id="181" depart="181.00" from="436920046#0" to="436906445#1"/>
    <trip id="183" depart="183.00" from="-5647019#0" to="5596757#0"/>
    <trip id="184" depart="184.00" from="-180616924#0" to="5680362"/>
    <trip id="185" depart="185.00" from="436913130#0" to="5597108#7"/>
    <trip id="186" depart="186.00" from="5607271#0" to="5589199#1"/>
    <trip id="187" depart="187.00" from="-5692951#3" to="-537398752#2"/>
    <trip id="188" depart="188.00" from="537398751#0" to="-5686137#0"/>
    <trip id="189" depart="189.00" from="-5664569#2" to="5647014#2"/>
    <trip id="190" depart="190.00" from="5597108#4" to="-5664569#2"/>
    <trip id="191" depart="191.00" from="-5664300#2" to="180616925"/>
    <trip id="192" depart="192.00" from="1072124111" to="-5664300#1"/>
    <trip id="193" depart="193.00" from="-5597108#6" to="203938009#2"/>
    <trip id="194" depart="194.00" from="5688454#0" to="5590400#0"/>
    <trip id="195" depart="195.00" from="5664569#2" to="437374503#1"/>
    <trip id="196" depart="196.00" from="-5659244" to="436913147"/>
    <trip id="197" depart="197.00" from="-1072124110" to="-5659244"/>
    <trip id="198" depart="198.00" from="30712136#1" to="436915450#1"/>
    <trip id="199" depart="199.00" from="537363956" to="381922726"/>
    <trip id="200" depart="200.00" from="32352756#0" to="-5637202"/>
    <trip id="201" depart="201.00" from="436906386#0" to="5664298#0"/>
    <trip id="202" depart="202.00" from="5634821#10" to="-5620642"/>
    <trip id="203" depart="203.00" from="-5590399#1" to="436906445#5"/>
    <trip id="204" depart="204.00" from="451602301" to="-5686137#4"/>
    <trip id="205" depart="205.00" from="5637745#3" to="5614902#1"/>
    <trip id="206" depart="206.00" from="5589199#1" to="-5637746#2"/>
    <trip id="207" depart="207.00" from="-5633339#0" to="-32352725#0"/>
    <trip id="208" depart="208.00" from="-5646904#1" to="436906389"/>
    <trip id="209" depart="209.00" from="5653875#0" to="-5589198"/>
    <trip id="210" depart="210.00" from="180616925" to="451602301"/>
    <trip id="211" depart="211.00" from="-5631818#0" to="5596099#1"/>
    <trip id="212" depart="212.00" from="436906419" to="-5647017#1"/>
    <trip id="213" depart="213.00" from="537363957#0" to="-180616928"/>
    <trip id="214" depart="214.00" from="5614902#1" to="5622687#0"/>
    <trip id="215" depart="215.00" from="-5596101#0" to="30712136#1"/>
    <trip id="216" depart="216.00" from="-5620642" to="5692951#2"/>
    <trip id="218" depart="218.00" from="-5646925#2" to="5647017#1"/>
    <trip id="219" depart="219.00" from="32993417#0" to="5634821#2"/>
    <trip id="220" depart="220.00" from="537398752#1" to="912902006#0"/>
    <trip id="221" depart="221.00" from="436915475" to="5691315#0"/>
    <trip id="222" depart="222.00" from="5661107#0" to="436920068"/>
    <trip id="223" depart="223.00" from="5597108#4" to="436906433#0"/>
    <trip id="224" depart="224.00" from="5645255#0" to="436913147"/>
    <trip id="225" depart="225.00" from="5664300#1" to="5607276#0"/>
    <trip id="226" depart="226.00" from="436906386#1" to="-5655340#1"/>
    <trip id="227" depart="227.00" from="-5646925#0" to="451834001#0"/>
    <trip id="228" depart="228.00" from="5619056#2" to="436913120"/>
    <trip id="229" depart="229.00" from="437375831" to="-5658976#0"/>
    <trip id="230" depart="230.00" from="-5589198" to="-5659242#5"/>
    <trip id="231" depart="231.00" from="-5655340#2" to="-5680362"/>
    <trip id="232" depart="232.00" from="436913130#1" to="-5599135#0"/>
    <trip id="233" depart="233.00" from="-5637746#0" to="5596094#1"/>
    <trip id="234" depart="234.00" from="5596377#1" to="-537398749"/>
    <trip id="236" depart="236.00" from="180616926" to="-5634821#6"/>
    <trip id="237" depart="237.00" from="194869677#0" to="5664300#2"/>
    <trip id="238" depart="238.00" from="436915454#1" to="5596099#1"/>
    <trip id="239" depart="239.00" from="5654961#3" to="5619850"/>
    <trip id="240" depart="240.00" from="-727671580#6" to="-180616928"/>
    <trip id="241" depart="241.00" from="-5690607#1" to="5617454#1"/>
    <trip id="242" depart="242.00" from="5654961#0" to="5692421#0"/>
    <trip id="243" depart="243.00" from="194869662#1" to="5609086#0"/>
    <trip id="244" depart="244.00" from="436913139" to="436920046#0"/>
    <trip id="245" depart="245.00" from="-5637203" to="-5637745#2"/>
    <trip id="246" depart="246.00" from="316903847#3" to="-32352756#1"/>
    <trip id="247" depart="247.00" from="-5684434" to="5590402#0"/>
    <trip id="248" depart="248.00" from="1084636705" to="-5619056#0"/>
    <trip id="249" depart="249.00" from="381922726" to="-5597222#0"/>
    <trip id="250" depart="250.00" from="437374503#4" to="-32352725#2"/>
    <trip id="251" depart="251.00" from="1029310824" to="436913180#1"/>
    <trip id="252" depart="252.00" from="-32352725#1" to="524337675#1"/>
    <trip id="253" depart="253.00" from="-5597694#0" to="378596810#3"/>
    <trip id="254" depart="254.00" from="-378596810#0" to="-912901991"/>
    <trip id="255" depart="255.00" from="-5634821#4" to="-5685538#0"/>
    <trip id="256" depart="256.00" from="5619053#2" to="-912901991"/>
    <trip id="257" depart="257.00" from="5617454#0" to="5644904#0"/>
    <trip id="258" depart="258.00" from="-5647014#1" to="-5590400#1"/>
    <trip id="259" depart="259.00" from="-316903847#0" to="436913134"/>
    <trip id="260" depart="260.00" from="981535795#1" to="-5692421#0"/>
    <trip id="261" depart="261.00" from="529474816" to="5629857#0"/>
    <trip id="262" depart="262.00" from="537363954#0" to="5617503#0"/>
    <trip id="263" depart="263.00" from="5691316#0" to="-5634821#12"/>
    <trip id="264" depart="264.00" from="-316903847#1" to="-5614902#0"/>
    <trip id="265" depart="265.00" from="-5597108#5" to="5589199#0"/>
    <trip id="266" depart="266.00" from="436913179#0" to="-5637745#0"/>
    <trip id="267" depart="267.00" from="5596099#1" to="5620642"/>
    <trip id="268" depart="268.00" from="-5619053#1" to="436920053#2"/>
    <trip id="269" depart="269.00" from="5609086#0" to="-5596757#0"/>
    <trip id="270" depart="270.00" from="5637745#3" to="5695440"/>
    <trip id="271" depart="271.00" from="-5596101#1" to="-32352725#1"/>
    <trip id="272" depart="272.00" from="-5664569#0" to="5590400#0"/>
    <trip id="273" depart="273.00" from="5692951#2" to="1072409701"/>
    <trip id="274" depart="274.00" from="5597108#0" to="-5589199#2"/>
    <trip id="275" depart="275.00" from="5591417#1" to="437375836"/>
    <trip id="277" depart="277.00" from="5653875#0" to="436920044#0"/>
    <trip id="279" depart="279.00" from="5629857#1" to="-5691316#0"/>
    <trip id="281" depart="281.00" from="436906430#5" to="-5690424"/>
    <trip id="282" depart="282.00" from="5653875#0" to="5637746#0"/>
    <trip id="283" depart="283.00" from="-5596099#2" to="5692953"/>
    <trip id="284" depart="284.00" from="451797269" to="5639548#1"/>
    <trip id="285" depart="285.00" from="5596377#2" to="32352725#2"/>
    <trip id="286" depart="286.00" from="5599132#0" to="5695440"/>
    <trip id="287" depart="287.00" from="-5655340#0" to="5634821#8"/>
    <trip id="288" depart="288.00" from="436913129#2" to="436906402#1"/>
    <trip id="289" depart="289.00" from="316903847#3" to="5599132#1"/>
    <trip id="290" depart="290.00" from="-5654968" to="5647019#2"/>
    <trip id="291" depart="291.00" from="5645255#0" to="-5591416#0"/>
    <trip id="292" depart="292.00" from="5659239" to="-5647017#1"/>
    <trip id="294" depart="294.00" from="-727671580#5" to="-32352756#0"/>
    <trip id="295" depart="295.00" from="5653875#1" to="-5626702"/>
    <trip id="296" depart="296.00" from="-5634821#4" to="5634821#11"/>
    <trip id="297" depart="297.00" from="-5686137#0" to="5658506"/>
    <trip id="298" depart="298.00" from="5596101#0" to="-5658976#2"/>
    <trip id="299" depart="299.00" from="-194869678" to="5690607#2"/>
    <trip id="300" depart="300.00" from="-5590400#0" to="5597108#8"/>
    <trip id="301" depart="301.00" from="436906405" to="5619053#0"/>
    <trip id="302" depart="302.00" from="5591417#1" to="529474815"/>
    <trip id="303" depart="303.00" from="436906413#0" to="5633343"/>
    <trip id="304" depart="304.00" from="-5591416#2" to="-5637746#0"/>
    <trip id="305" depart="305.00" from="5592521" to="-5674094#1"/>
    <trip id="307" depart="307.00" from="436913125" to="315565341"/>
    <trip id="308" depart="308.00" from="5607276#1" to="-5686137#0"/>
    <trip id="309" depart="309.00" from="5596101#1" to="-5658506"/>
    <trip id="310" depart="310.00" from="-5647014#1" to="-5597108#3"/>
    <trip id="311" depart="311.00" from="-5629857#2" to="-5597108#2"/>
    <trip id="312" depart="312.00" from="436913129#0" to="5619056#0"/>
    <trip id="313" depart="313.00" from="-5625002#4" to="-5637661"/>
    <trip id="315" depart="315.00" from="727671582" to="436913122"/>
    <trip id="316" depart="316.00" from="-5658505" to="-5596099#0"/>
    <trip id="317" depart="317.00" from="-5631818#0" to="-5644904#1"/>
    <trip id="318" depart="318.00" from="-5622687#1" to="-203938009#3"/>
    <trip id="319" depart="319.00" from="436913128" to="-5658976#0"/>
    <trip id="320" depart="320.00" from="727671580#6" to="436913153"/>
    <trip id="322" depart="322.00" from="5658349#1" to="436906419"/>
    <trip id="323" depart="323.00" from="5658506" to="436915415"/>
    <trip id="325" depart="325.00" from="-5625002#3" to="-378596810#3"/>
    <trip id="327" depart="327.00" from="5637746#2" to="1119767533"/>
    <trip id="328" depart="328.00" from="-537398752#2" to="451602301"/>
    <trip id="329" depart="329.00" from="-378596810#3" to="-5607277"/>
    <trip id="330" depart="330.00" from="436913176" to="-5672024"/>
    <trip id="331" depart="331.00" from="915954384" to="-5597108#1"/>
    <trip id="332" depart="332.00" from="5619056#1" to="436920053#1"/>
    <trip id="333" depart="333.00" from="5633339#2" to="-5637746#3"/>
    <trip id="334" depart="334.00" from="436907162#1" to="32993246#1"/>
    <trip id="335" depart="335.00" from="32352756#0" to="5654961#2"/>
    <trip id="336" depart="336.00" from="912902006#1" to="-5674094#0"/>
    <trip id="337" depart="337.00" from="437374503#3" to="436920060#1"/>
    <trip id="338" depart="338.00" from="5603084" to="5690607#1"/>
    <trip id="339" depart="339.00" from="-5634821#12" to="-5635008#0"/>
    <trip id="340" depart="340.00" from="537398748" to="-5617503#0"/>
    <trip id="341" depart="341.00" from="-5619056#2" to="-5589199#1"/>
    <trip id="342" depart="342.00" from="-180616924#1" to="32993246#1"/>
    <trip id="343" depart="343.00" from="436915472#2" to="-5664298#0"/>
    <trip id="344" depart="344.00" from="-5637746#1" to="5596756#1"/>
    <trip id="345" depart="345.00" from="5596101#1" to="32993417#1"/>
    <trip id="346" depart="346.00" from="5591416#2" to="5680147#1"/>
    <trip id="347" depart="347.00" from="5633336#1" to="437375833"/>
    <trip id="348" depart="348.00" from="537398749" to="5685538#1"/>
    <trip id="349" depart="349.00" from="203938009#1" to="436913142"/>
    <trip id="350" depart="350.00" from="524337675#2" to="5664569#1"/>
    <trip id="351" depart="351.00" from="5639548#2" to="-5589185"/>
    <trip id="352" depart="352.00" from="-5617525" to="-5674098"/>
    <trip id="353" depart="353.00" from="5609086#1" to="436913187"/>
    <trip id="354" depart="354.00" from="-5658976#1" to="-5597108#7"/>
    <trip id="355" depart="355.00" from="5591416#3" to="5596101#1"/>
    <trip id="357" depart="357.00" from="436906414" to="-5590400#0"/>
    <trip id="358" depart="358.00" from="-32935135#3" to="316903847#5"/>
    <trip id="359" depart="359.00" from="-5678556#0" to="-5653876"/>
    <trip id="360" depart="360.00" from="-5591416#0" to="5694361#0"/>
    <trip id="361" depart="361.00" from="5646904#1" to="436915425#0"/>
    <trip id="362" depart="362.00" from="5691316#1" to="981535795#1"/>
    <trip id="363" depart="363.00" from="5589199#1" to="-5658505"/>
    <trip id="364" depart="364.00" from="-32992999#1" to="5617503#1"/>
    <trip id="365" depart="365.00" from="436906380" to="537363956"/>
    <trip id="366" depart="366.00" from="5678556#2" to="-5626700"/>
    <trip id="367" depart="367.00" from="436915459" to="451834000#0"/>
    <trip id="368" depart="368.00" from="436906413#1" to="-5591417#0"/>
    <trip id="369" depart="369.00" from="-5688454#1" to="-5686137#2"/>
    <trip id="370" depart="370.00" from="5589198" to="5654961#0"/>
    <trip id="371" depart="371.00" from="-5680362" to="5596094#1"/>
    <trip id="372" depart="372.00" from="-5658976#1" to="5688455"/>
    <trip id="373" depart="373.00" from="5637659" to="436913149"/>
    <trip id="374" depart="374.00" from="32993246#1" to="-5678556#3"/>
    <trip id="375" depart="375.00" from="-5678556#0" to="727671580#1"/>
    <trip id="376" depart="376.00" from="1072409701" to="436906445#4"/>
    <trip id="377" depart="377.00" from="912902006#0" to="537398748"/>
    <trip id="378" depart="378.00" from="436913132" to="194869677#0"/>
    <trip id="379" depart="379.00" from="-5626700" to="-5695440"/>
    <trip id="380" depart="380.00" from="5617525" to="437375833"/>
    <trip id="381" depart="381.00" from="5619053#1" to="-5634821#3"/>
    <trip id="382" depart="382.00" from="436913144#0" to="5684207#1"/>
    <trip id="383" depart="383.00" from="316903847#5" to="5596101#0"/>
    <trip id="384" depart="384.00" from="-5597108#1" to="727671580#3"/>
    <trip id="385" depart="385.00" from="436920053#0" to="-5647014#0"/>
    <trip id="386" depart="386.00" from="-5614902#0" to="436913150"/>
    <trip id="387" depart="387.00" from="436913148" to="-5592521"/>
    <trip id="388" depart="388.00" from="912902008" to="5672024"/>
    <trip id="389" depart="389.00" from="378596808" to="-5597108#1"/>
    <trip id="391" depart="391.00" from="5597108#2" to="436906437"/>
    <trip id="392" depart="392.00" from="-5655340#3" to="5644907"/>
    <trip id="394" depart="394.00" from="436913147" to="1029310823#0"/>
    <trip id="395" depart="395.00" from="5680362" to="436906434#1"/>
    <trip id="396" depart="396.00" from="5658976#3" to="5654970"/>
    <trip id="397" depart="397.00" from="-5656269#1" to="5633339#0"/>
    <trip id="398" depart="398.00" from="180616925" to="5685538#1"/>
    <trip id="399" depart="399.00" from="436906430#7" to="5637745#2"/>
    <trip id="400" depart="400.00" from="-5658505" to="-5664569#0"/>
    <trip id="401" depart="401.00" from="436915462#1" to="981535795#1"/>
    <trip id="402" depart="402.00" from="436906412" to="-5607277"/>
    <trip id="403" depart="403.00" from="436913130#0" to="-5690607#2"/>
    <trip id="404" depart="404.00" from="436913148" to="436913139"/>
    <trip id="405" depart="405.00" from="32993246#2" to="-5684207#1"/>
    <trip id="406" depart="406.00" from="-5626702" to="5596099#2"/>
    <trip id="407" depart="407.00" from="436913187" to="-5646904#0"/>
    <trip id="408" depart="408.00" from="5625002#2" to="-32993417#1"/>
    <trip id="409" depart="409.00" from="5607276#0" to="5596377#3"/>
    <trip id="410" depart="410.00" from="5637202" to="1029310823#2"/>
    <trip id="411" depart="411.00" from="537398751#0" to="5637745#3"/>
    <trip id="414" depart="414.00" from="436915466#1" to="5655564"/>
    <trip id="415" depart="415.00" from="5658510#0" to="32352756#2"/>
    <trip id="416" depart="416.00" from="436913121#0" to="33002198"/>
    <trip id="417" depart="417.00" from="5597108#7" to="180616928"/>
    <trip id="418" depart="418.00" from="537363956" to="-5617454#0"/>
    <trip id="420" depart="420.00" from="-5685538#1" to="5592526"/>
    <trip id="421" depart="421.00" from="529474815" to="5647019#2"/>
    <trip id="422" depart="422.00" from="5653876" to="5654961#1"/>
    <trip id="423" depart="423.00" from="-727671580#6" to="-5680147#0"/>
    <trip id="424" depart="424.00" from="5597108#4" to="5619053#1"/>
    <trip id="425" depart="425.00" from="5658505" to="-32935135#1"/>
    <trip id="426" depart="426.00" from="-537398750" to="451797267"/>
    <trip id="427" depart="427.00" from="5680258" to="980967444#1"/>
    <trip id="428" depart="428.00" from="5607277" to="32352725#0"/>
    <trip id="429" depart="429.00" from="-5592521" to="451808273#1"/>
    <trip id="430" depart="430.00" from="5658505" to="32935135#0"/>
    <trip id="431" depart="431.00" from="5592525" to="5664300#0"/>
    <trip id="432" depart="432.00" from="-32993417#1" to="5634821#1"/>
    <trip id="434" depart="434.00" from="-5603084" to="436913128"/>
    <trip id="435" depart="435.00" from="436913180#0" to="5633339#2"/>
    <trip id="436" depart="436.00" from="-5619053#3" to="-5590399#1"/>
    <trip id="437" depart="437.00" from="5658349#3" to="437374507"/>
    <trip id="438" depart="438.00" from="-5645255#0" to="5672024"/>