<?xml version="1.0" encoding="UTF-8"?>

<!-- generated on 2024-11-04 13:27:22 by Eclipse SUMO netconvert Version 1.21.0
<netconvertConfiguration xmlns:xsi="http://www.w3.org/2001/XMLSchema-instance" xsi:noNamespaceSchemaLocation="http://sumo.dlr.de/xsd/netconvertConfiguration.xsd">

    <input>
        <osm-files value="ChandlerAZ.osm"/>
    </input>

    <output>
        <output-file value="ChandlerAZ.net.xml"/>
    </output>

    <projection>
        <proj.utm value="true"/>
    </projection>

</netconvertConfiguration>
-->

<net version="1.20" junctionCornerDetail="5" limitTurnSpeed="5.50" xmlns:xsi="http://www.w3.org/2001/XMLSchema-instance" xsi:noNamespaceSchemaLocation="http://sumo.dlr.de/xsd/net_file.xsd">

    <location netOffset="-422853.73,-3685564.69" convBoundary="0.00,0.00,3614.11,3166.40" origBoundary="-111.828854,33.306577,-111.790138,33.335238" projParameter="+proj=utm +zone=12 +ellps=WGS84 +datum=WGS84 +units=m +no_defs"/>

    <type id="highway.footway" priority="1" numLanes="1" speed="2.78" allow="pedestrian" oneway="1" width="2.00"/>
    <type id="highway.residential" priority="3" numLanes="1" speed="13.89" disallow="tram rail_urban rail rail_electric rail_fast ship container cable_car subway aircraft wheelchair scooter drone" oneway="0"/>
    <type id="highway.secondary" priority="11" numLanes="1" speed="27.78" disallow="tram rail_urban rail rail_electric rail_fast ship container cable_car subway aircraft wheelchair scooter drone" oneway="0"/>
    <type id="highway.secondary_link" priority="6" numLanes="1" speed="22.22" disallow="tram rail_urban rail rail_electric rail_fast ship container cable_car subway aircraft wheelchair scooter drone" oneway="0"/>
    <type id="highway.service" priority="1" numLanes="1" speed="5.56" allow="pedestrian delivery bicycle" oneway="0"/>
    <type id="highway.tertiary" priority="10" numLanes="1" speed="22.22" disallow="tram rail_urban rail rail_electric rail_fast ship container cable_car subway aircraft wheelchair scooter drone" oneway="0"/>

    <edge id=":10114247524_0" function="internal">
        <lane id=":10114247524_0_0" index="0" allow="pedestrian delivery bicycle" speed="5.56" length="9.40" shape="1853.91,1799.36 1844.51,1799.36"/>
    </edge>
    <edge id=":10114247524_1" function="internal">
        <lane id=":10114247524_1_0" index="0" allow="pedestrian delivery bicycle" speed="5.56" length="10.16" shape="1853.91,1799.36 1851.19,1798.96 1849.23,1797.78 1848.02,1795.80 1847.58,1793.03"/>
    </edge>
    <edge id=":10114247524_2" function="internal">
        <lane id=":10114247524_2_0" index="0" allow="pedestrian delivery bicycle" speed="3.65" length="4.67" shape="1853.91,1799.36 1852.71,1798.56 1852.31,1797.76 1852.71,1796.96 1853.91,1796.16"/>
    </edge>
    <edge id=":10114247524_3" function="internal">
        <lane id=":10114247524_3_0" index="0" allow="pedestrian delivery bicycle" speed="5.11" length="5.08" shape="1850.78,1792.96 1851.00,1794.36 1851.59,1795.36 1852.56,1795.96 1853.91,1796.16"/>
    </edge>
    <edge id=":10114247524_4" function="internal">
        <lane id=":10114247524_4_0" index="0" allow="pedestrian delivery bicycle" speed="5.56" length="10.26" shape="1850.78,1792.96 1850.44,1795.76 1849.28,1797.76 1847.30,1798.96 1844.51,1799.36"/>
    </edge>
    <edge id=":10114247524_5" function="internal">
        <lane id=":10114247524_5_0" index="0" allow="pedestrian delivery bicycle" speed="3.65" length="4.67" shape="1850.78,1792.96 1850.00,1794.18 1849.21,1794.59 1848.40,1794.21 1847.58,1793.03"/>
    </edge>
    <edge id=":10114247524_6" function="internal">
        <lane id=":10114247524_6_0" index="0" allow="pedestrian delivery bicycle" speed="5.02" length="5.02" shape="1844.51,1796.16 1845.88,1795.96 1846.84,1795.38 1847.41,1794.40 1847.58,1793.03"/>
    </edge>
    <edge id=":10114247524_7" function="internal">
        <lane id=":10114247524_7_0" index="0" allow="pedestrian delivery bicycle" speed="5.56" length="9.40" shape="1844.51,1796.16 1853.91,1796.16"/>
    </edge>
    <edge id=":10114247524_8" function="internal">
        <lane id=":10114247524_8_0" index="0" allow="pedestrian delivery bicycle" speed="3.65" length="4.67" shape="1844.51,1796.16 1845.71,1796.96 1846.11,1797.76 1845.71,1798.56 1844.51,1799.36"/>
    </edge>
    <edge id=":10114247525_0" function="internal">
        <lane id=":10114247525_0_0" index="0" allow="pedestrian delivery bicycle" speed="5.09" length="5.06" shape="1847.20,1774.14 1846.98,1772.75 1846.38,1771.76 1845.41,1771.17 1844.06,1770.97"/>
    </edge>
    <edge id=":10114247525_1" function="internal">
        <lane id=":10114247525_1_0" index="0" allow="pedestrian delivery bicycle" speed="5.56" length="10.24" shape="1847.20,1774.14 1847.54,1771.35 1848.70,1769.35 1850.66,1768.15 1853.45,1767.74"/>
    </edge>
    <edge id=":10114247525_2" function="internal">
        <lane id=":10114247525_2_0" index="0" allow="pedestrian delivery bicycle" speed="3.65" length="4.67" shape="1847.20,1774.14 1847.97,1772.92 1848.76,1772.51 1849.57,1772.89 1850.40,1774.07"/>
    </edge>
    <edge id=":10114247525_3" function="internal">
        <lane id=":10114247525_3_0" index="0" allow="pedestrian delivery bicycle" speed="5.02" length="5.02" shape="1853.46,1770.94 1852.10,1771.14 1851.13,1771.73 1850.56,1772.71 1850.40,1774.07"/>
    </edge>
    <edge id=":10114247525_4" function="internal">
        <lane id=":10114247525_4_0" index="0" allow="pedestrian delivery bicycle" speed="5.56" length="9.40" shape="1853.46,1770.94 1844.06,1770.97"/>
    </edge>
    <edge id=":10114247525_5" function="internal">
        <lane id=":10114247525_5_0" index="0" allow="pedestrian delivery bicycle" speed="3.65" length="4.67" shape="1853.46,1770.94 1852.26,1770.14 1851.85,1769.34 1852.25,1768.54 1853.45,1767.74"/>
    </edge>
    <edge id=":10114247525_6" function="internal">
        <lane id=":10114247525_6_0" index="0" allow="pedestrian delivery bicycle" speed="5.56" length="9.40" shape="1844.05,1767.77 1853.45,1767.74"/>
    </edge>
    <edge id=":10114247525_7" function="internal">
        <lane id=":10114247525_7_0" index="0" allow="pedestrian delivery bicycle" speed="5.56" length="10.16" shape="1844.05,1767.77 1846.78,1768.16 1848.75,1769.34 1849.95,1771.31 1850.40,1774.07"/>
    </edge>
    <edge id=":10114247525_8" function="internal">
        <lane id=":10114247525_8_0" index="0" allow="pedestrian delivery bicycle" speed="3.65" length="4.67" shape="1844.05,1767.77 1845.25,1768.57 1845.65,1769.37 1845.26,1770.17 1844.06,1770.97"/>
    </edge>
    <edge id=":10114247526_0" function="internal">
        <lane id=":10114247526_0_0" index="0" allow="pedestrian delivery bicycle" speed="5.56" length="9.44" shape="1873.61,1799.32 1864.17,1799.36"/>
    </edge>
    <edge id=":10114247526_1" function="internal">
        <lane id=":10114247526_1_0" index="0" allow="pedestrian delivery bicycle" speed="5.56" length="10.21" shape="1873.61,1799.32 1870.84,1798.95 1868.86,1797.77 1867.67,1795.80 1867.28,1793.03"/>
    </edge>
    <edge id=":10114247526_2" function="internal">
        <lane id=":10114247526_2_0" index="0" allow="pedestrian delivery bicycle" speed="3.65" length="4.67" shape="1873.61,1799.32 1872.40,1798.53 1872.00,1797.74 1872.39,1796.93 1873.59,1796.12"/>
    </edge>
    <edge id=":10114247526_3" function="internal">
        <lane id=":10114247526_3_0" index="0" allow="pedestrian delivery bicycle" speed="5.03" length="5.01" shape="1870.48,1793.03 1870.67,1794.39 1871.25,1795.36 1872.22,1795.94 1873.59,1796.12"/>
    </edge>
    <edge id=":10114247526_4" function="internal">
        <lane id=":10114247526_4_0" index="0" allow="pedestrian delivery bicycle" speed="5.56" length="10.18" shape="1870.48,1793.03 1870.08,1795.80 1868.90,1797.78 1866.93,1798.96 1864.17,1799.36"/>
    </edge>
    <edge id=":10114247526_5" function="internal">
        <lane id=":10114247526_5_0" index="0" allow="pedestrian delivery bicycle" speed="3.65" length="4.67" shape="1870.48,1793.03 1869.67,1794.23 1868.87,1794.63 1868.07,1794.23 1867.28,1793.03"/>
    </edge>
    <edge id=":10114247526_6" function="internal">
        <lane id=":10114247526_6_0" index="0" allow="pedestrian delivery bicycle" speed="5.05" length="5.02" shape="1864.17,1796.16 1865.53,1795.96 1866.50,1795.38 1867.08,1794.40 1867.28,1793.03"/>
    </edge>
    <edge id=":10114247526_7" function="internal">
        <lane id=":10114247526_7_0" index="0" allow="pedestrian delivery bicycle" speed="5.56" length="9.41" shape="1864.17,1796.16 1873.59,1796.12"/>
    </edge>
    <edge id=":10114247526_8" function="internal">
        <lane id=":10114247526_8_0" index="0" allow="pedestrian delivery bicycle" speed="3.65" length="4.67" shape="1864.17,1796.16 1865.37,1796.96 1865.77,1797.76 1865.37,1798.56 1864.17,1799.36"/>
    </edge>
    <edge id=":10114247527_0" function="internal">
        <lane id=":10114247527_0_0" index="0" allow="pedestrian delivery bicycle" speed="5.06" length="5.02" shape="1873.60,1770.86 1872.25,1771.06 1871.28,1771.65 1870.70,1772.63 1870.50,1774.00"/>
    </edge>
    <edge id=":10114247527_1" function="internal">
        <lane id=":10114247527_1_0" index="0" allow="pedestrian delivery bicycle" speed="5.56" length="9.40" shape="1873.60,1770.86 1864.20,1770.89"/>
    </edge>
    <edge id=":10114247527_2" function="internal">
        <lane id=":10114247527_2_0" index="0" allow="pedestrian delivery bicycle" speed="3.65" length="4.67" shape="1873.60,1770.86 1872.40,1770.06 1871.99,1769.26 1872.39,1768.46 1873.59,1767.66"/>
    </edge>
    <edge id=":10114247527_3" function="internal">
        <lane id=":10114247527_3_0" index="0" allow="pedestrian delivery bicycle" speed="5.56" length="9.40" shape="1864.19,1767.69 1873.59,1767.66"/>
    </edge>
    <edge id=":10114247527_4" function="internal">
        <lane id=":10114247527_4_0" index="0" allow="pedestrian delivery bicycle" speed="5.56" length="10.19" shape="1864.19,1767.69 1866.95,1768.08 1868.93,1769.26 1870.11,1771.23 1870.50,1774.00"/>
    </edge>
    <edge id=":10114247527_5" function="internal">
        <lane id=":10114247527_5_0" index="0" allow="pedestrian delivery bicycle" speed="3.65" length="4.67" shape="1864.19,1767.69 1865.39,1768.49 1865.79,1769.29 1865.40,1770.09 1864.20,1770.89"/>
    </edge>
    <edge id=":10114247527_6" function="internal">
        <lane id=":10114247527_6_0" index="0" allow="pedestrian delivery bicycle" speed="5.03" length="5.01" shape="1867.30,1773.99 1867.11,1772.63 1866.53,1771.66 1865.56,1771.08 1864.20,1770.89"/>
    </edge>
    <edge id=":10114247527_7" function="internal">
        <lane id=":10114247527_7_0" index="0" allow="pedestrian delivery bicycle" speed="5.56" length="10.16" shape="1867.30,1773.99 1867.70,1771.23 1868.88,1769.25 1870.84,1768.06 1873.59,1767.66"/>
    </edge>
    <edge id=":10114247527_8" function="internal">
        <lane id=":10114247527_8_0" index="0" allow="pedestrian delivery bicycle" speed="3.65" length="4.67" shape="1867.30,1773.99 1868.10,1772.79 1868.90,1772.39 1869.70,1772.79 1870.50,1774.00"/>
    </edge>
    <edge id=":10241668084_0" function="internal">
        <lane id=":10241668084_0_0" index="0" disallow="tram rail_urban rail rail_electric rail_fast ship container cable_car subway aircraft wheelchair scooter drone" speed="6.54" length="8.90" shape="917.23,1754.38 917.18,1756.78 917.92,1758.66 919.45,1760.00 921.77,1760.80"/>
    </edge>
    <edge id=":10241668084_1" function="internal">
        <lane id=":10241668084_1_0" index="0" disallow="tram rail_urban rail rail_electric rail_fast ship container cable_car subway aircraft wheelchair scooter drone" speed="11.18" length="9.83" shape="917.23,1754.38 915.62,1764.08"/>
    </edge>
    <edge id=":10241668084_2" function="internal">
        <lane id=":10241668084_2_0" index="0" disallow="tram rail_urban rail rail_electric rail_fast ship container cable_car subway aircraft wheelchair scooter drone" speed="3.65" length="4.67" shape="917.23,1754.38 916.25,1755.43 915.39,1755.69 914.67,1755.17 914.07,1753.85"/>
    </edge>
    <edge id=":10241668084_3" function="internal">
        <lane id=":10241668084_3_0" index="0" disallow="tram rail_urban rail rail_electric rail_fast ship container cable_car subway aircraft wheelchair scooter drone" speed="11.18" length="9.83" shape="912.47,1763.55 914.07,1753.85"/>
    </edge>
    <edge id=":10241668084_4" function="internal">
        <lane id=":10241668084_4_0" index="0" disallow="tram rail_urban rail rail_electric rail_fast ship container cable_car subway aircraft wheelchair scooter drone" speed="6.98" length="10.81" shape="912.47,1763.55 913.33,1761.71 915.16,1760.64 917.97,1760.34 921.77,1760.80"/>
    </edge>
    <edge id=":10241668084_5" function="internal">
        <lane id=":10241668084_5_0" index="0" disallow="tram rail_urban rail rail_electric rail_fast ship container cable_car subway aircraft wheelchair scooter drone" speed="3.65" length="4.67" shape="912.47,1763.55 913.45,1762.50 914.31,1762.24 915.03,1762.76 915.62,1764.08"/>
    </edge>
    <edge id=":10241726016_0" function="internal">
        <lane id=":10241726016_0_0" index="0" disallow="tram rail_urban rail rail_electric rail_fast ship container cable_car subway aircraft wheelchair scooter drone" speed="4.23" length="1.28" shape="266.31,1460.70 266.11,1460.38 265.92,1460.19 265.69,1460.07 265.33,1459.96"/>
    </edge>
    <edge id=":10241726016_1" function="internal">
        <lane id=":10241726016_1_0" index="0" disallow="tram rail_urban rail rail_electric rail_fast ship container cable_car subway aircraft wheelchair scooter drone" speed="6.69" length="3.83" shape="266.14,1456.86 267.21,1457.18 267.92,1457.55 268.46,1458.13 269.06,1459.07"/>
    </edge>
    <edge id=":10241726133_0" function="internal">
        <lane id=":10241726133_0_0" index="0" disallow="tram rail_urban rail rail_electric rail_fast ship container cable_car subway aircraft wheelchair scooter drone" speed="3.65" length="4.67" shape="80.69,1141.64 79.49,1140.84 79.09,1140.04 79.50,1139.24 80.70,1138.44"/>
    </edge>
    <edge id=":10241726146_0" function="internal">
        <lane id=":10241726146_0_0" index="0" disallow="tram rail_urban rail rail_electric rail_fast ship container cable_car subway aircraft wheelchair scooter drone" speed="11.18" length="0.10" shape="381.11,991.95 381.11,991.95"/>
    </edge>
    <edge id=":10270776421_0" function="internal">
        <lane id=":10270776421_0_0" index="0" allow="pedestrian delivery bicycle" speed="5.03" length="4.86" shape="2128.81,1628.40 2128.57,1627.23 2127.93,1626.40 2126.88,1625.90 2125.44,1625.73"/>
    </edge>
    <edge id=":10270776421_1" function="internal">
        <lane id=":10270776421_1_0" index="0" allow="pedestrian delivery bicycle" speed="5.56" length="8.80" shape="2128.81,1628.40 2128.48,1619.61"/>
    </edge>
    <edge id=":10270776421_2" function="internal">
        <lane id=":10270776421_2_0" index="0" allow="pedestrian delivery bicycle" speed="3.65" length="4.67" shape="2128.81,1628.40 2129.57,1627.18 2130.36,1626.75 2131.17,1627.13 2132.01,1628.30"/>
    </edge>
    <edge id=":10270776421_3" function="internal">
        <lane id=":10270776421_3_0" index="0" allow="pedestrian delivery bicycle" speed="5.56" length="8.84" shape="2131.67,1619.47 2132.01,1628.30"/>
    </edge>
    <edge id=":10270776421_4" function="internal">
        <lane id=":10270776421_4_0" index="0" allow="pedestrian delivery bicycle" speed="5.56" length="10.17" shape="2131.67,1619.47 2131.39,1622.21 2130.25,1624.16 2128.27,1625.34 2125.44,1625.73"/>
    </edge>
    <edge id=":10270776421_5" function="internal">
        <lane id=":10270776421_5_0" index="0" allow="pedestrian delivery bicycle" speed="3.65" length="4.67" shape="2131.67,1619.47 2130.93,1620.71 2130.14,1621.14 2129.33,1620.77 2128.48,1619.61"/>
    </edge>
    <edge id=":10270776421_6" function="internal">
        <lane id=":10270776421_6_0" index="0" allow="pedestrian delivery bicycle" speed="4.92" length="4.85" shape="2125.44,1622.53 2126.81,1622.35 2127.78,1621.80 2128.33,1620.89 2128.48,1619.61"/>
    </edge>
    <edge id=":10270776421_7" function="internal">
        <lane id=":10270776421_7_0" index="0" allow="pedestrian delivery bicycle" speed="5.56" length="9.90" shape="2125.44,1622.53 2128.24,1622.89 2130.27,1623.97 2131.53,1625.77 2132.01,1628.30"/>
    </edge>
    <edge id=":10270776421_8" function="internal">
        <lane id=":10270776421_8_0" index="0" allow="pedestrian delivery bicycle" speed="3.65" length="4.67" shape="2125.44,1622.53 2126.64,1623.33 2127.04,1624.13 2126.64,1624.93 2125.44,1625.73"/>
    </edge>
    <edge id=":10270776422_0" function="internal">
        <lane id=":10270776422_0_0" index="0" allow="pedestrian delivery bicycle" speed="5.56" length="19.81" shape="2120.52,1625.74 2117.37,1626.78 2116.39,1629.87 2117.59,1635.02 2120.97,1642.22"/>
    </edge>
    <edge id=":10270776422_1" function="internal">
        <lane id=":10270776422_1_0" index="0" allow="pedestrian delivery bicycle" speed="5.56" length="18.78" shape="2120.52,1625.74 2119.09,1626.86 2118.12,1630.22 2117.62,1635.82 2117.59,1643.66"/>
    </edge>
    <edge id=":10270776422_2" function="internal">
        <lane id=":10270776422_2_0" index="0" allow="pedestrian delivery bicycle" speed="5.56" length="19.89" shape="2120.52,1625.74 2118.08,1626.86 2116.35,1630.19 2115.32,1635.75 2115.01,1643.53"/>
    </edge>
    <edge id=":10270776422_3" function="internal">
        <lane id=":10270776422_3_0" index="0" allow="pedestrian delivery bicycle" speed="5.56" length="21.17" shape="2120.52,1625.74 2117.13,1626.85 2114.67,1630.17 2113.14,1635.69 2112.54,1643.41"/>
    </edge>
    <edge id=":10270776422_4" function="internal">
        <lane id=":10270776422_4_0" index="0" allow="pedestrian delivery bicycle" speed="5.56" length="7.67" shape="2120.52,1625.74 2112.85,1625.70"/>
    </edge>
    <edge id=":10270776422_5" function="internal">
        <lane id=":10270776422_5_0" index="0" allow="pedestrian delivery bicycle" speed="3.65" length="4.67" shape="2120.52,1625.74 2119.32,1624.94 2118.92,1624.14 2119.32,1623.34 2120.52,1622.54"/>
    </edge>
    <edge id=":10270776422_6" function="internal">
        <lane id=":10270776422_6_0" index="0" allow="pedestrian delivery bicycle" speed="5.56" length="7.62" shape="2112.89,1622.50 2120.52,1622.54"/>
    </edge>
    <edge id=":10270776422_7" function="internal">
        <lane id=":10270776422_7_0" index="0" allow="pedestrian delivery bicycle" speed="5.56" length="21.74" shape="2112.89,1622.50 2112.41,1623.72 2113.59,1627.41 2116.44,1633.58 2120.97,1642.22"/>
    </edge>
    <edge id=":10270776422_8" function="internal">
        <lane id=":10270776422_8_0" index="0" allow="pedestrian delivery bicycle" speed="5.56" length="22.45" shape="2112.89,1622.50 2114.77,1623.84 2116.18,1627.82 2117.12,1634.42 2117.59,1643.66"/>
    </edge>
    <edge id=":10270776422_9" function="internal">
        <lane id=":10270776422_9_0" index="0" allow="pedestrian delivery bicycle" speed="5.56" length="21.37" shape="2112.89,1622.50 2113.78,1623.82 2114.43,1627.77 2114.84,1634.34 2115.01,1643.53"/>
    </edge>
    <edge id=":10270776422_10" function="internal">
        <lane id=":10270776422_10_0" index="0" allow="pedestrian delivery bicycle" speed="5.56" length="20.95" shape="2112.89,1622.50 2113.26,1625.63 2113.10,1632.58 2112.74,1639.72 2112.54,1643.41"/>
    </edge>
    <edge id=":10270776422_11" function="internal">
        <lane id=":10270776422_11_0" index="0" allow="pedestrian delivery bicycle" speed="3.65" length="4.67" shape="2112.89,1622.50 2114.08,1623.31 2114.47,1624.12 2114.06,1624.91 2112.85,1625.70"/>
    </edge>
    <edge id=":10270776451_0" function="internal">
        <lane id=":10270776451_0_0" index="0" allow="pedestrian delivery bicycle" speed="3.65" length="4.67" shape="2164.65,1408.76 2163.84,1409.95 2163.03,1410.35 2162.24,1409.94 2161.45,1408.73"/>
    </edge>
    <edge id=":10270776452_0" function="internal">
        <lane id=":10270776452_0_0" index="0" allow="pedestrian delivery bicycle" speed="5.08" length="5.04" shape="2168.05,1380.57 2166.70,1380.77 2165.73,1381.36 2165.14,1382.35 2164.94,1383.73"/>
    </edge>
    <edge id=":10270776452_1" function="internal">
        <lane id=":10270776452_1_0" index="0" allow="pedestrian delivery bicycle" speed="5.56" length="9.40" shape="2168.05,1380.57 2158.65,1380.57"/>
    </edge>
    <edge id=":10270776452_2" function="internal">
        <lane id=":10270776452_2_0" index="0" allow="pedestrian delivery bicycle" speed="3.65" length="4.67" shape="2168.05,1380.57 2166.85,1379.77 2166.46,1378.97 2166.86,1378.17 2168.06,1377.37"/>
    </edge>
    <edge id=":10270776452_3" function="internal">
        <lane id=":10270776452_3_0" index="0" allow="pedestrian delivery bicycle" speed="5.56" length="9.40" shape="2158.65,1377.37 2168.06,1377.37"/>
    </edge>
    <edge id=":10270776452_4" function="internal">
        <lane id=":10270776452_4_0" index="0" allow="pedestrian delivery bicycle" speed="5.56" length="10.22" shape="2158.65,1377.37 2161.43,1377.77 2163.40,1378.96 2164.57,1380.95 2164.94,1383.73"/>
    </edge>
    <edge id=":10270776452_5" function="internal">
        <lane id=":10270776452_5_0" index="0" allow="pedestrian delivery bicycle" speed="3.65" length="4.67" shape="2158.65,1377.37 2159.85,1378.17 2160.25,1378.97 2159.85,1379.77 2158.65,1380.57"/>
    </edge>
    <edge id=":10270776452_6" function="internal">
        <lane id=":10270776452_6_0" index="0" allow="pedestrian delivery bicycle" speed="5.03" length="5.01" shape="2161.74,1383.69 2161.56,1382.33 2160.98,1381.35 2160.02,1380.77 2158.65,1380.57"/>
    </edge>
    <edge id=":10270776452_7" function="internal">
        <lane id=":10270776452_7_0" index="0" allow="pedestrian delivery bicycle" speed="5.56" length="10.16" shape="2161.74,1383.69 2162.16,1380.93 2163.35,1378.95 2165.32,1377.77 2168.06,1377.37"/>
    </edge>
    <edge id=":10270776452_8" function="internal">
        <lane id=":10270776452_8_0" index="0" allow="pedestrian delivery bicycle" speed="3.65" length="4.67" shape="2161.74,1383.69 2162.55,1382.50 2163.35,1382.11 2164.15,1382.52 2164.94,1383.73"/>
    </edge>
    <edge id=":10270798129_0" function="internal">
        <lane id=":10270798129_0_0" index="0" disallow="tram rail_urban rail rail_electric rail_fast ship container cable_car subway aircraft wheelchair scooter drone" speed="27.78" length="0.30" shape="2035.53,1975.71 2035.52,1975.42"/>
        <lane id=":10270798129_0_1" index="1" disallow="tram rail_urban rail rail_electric rail_fast ship container cable_car subway aircraft wheelchair scooter drone" speed="27.78" length="0.30" shape="2038.73,1975.68 2038.72,1975.38"/>
    </edge>
    <edge id=":10270798130_0" function="internal">
        <lane id=":10270798130_0_0" index="0" disallow="tram rail_urban rail rail_electric rail_fast ship container cable_car subway aircraft wheelchair scooter drone" speed="27.78" length="0.30" shape="2050.92,1976.36 2050.93,1976.66"/>
        <lane id=":10270798130_0_1" index="1" disallow="tram rail_urban rail rail_electric rail_fast ship container cable_car subway aircraft wheelchair scooter drone" speed="27.78" length="0.30" shape="2047.72,1976.38 2047.73,1976.68"/>
        <lane id=":10270798130_0_2" index="2" disallow="tram rail_urban rail rail_electric rail_fast ship container cable_car subway aircraft wheelchair scooter drone" speed="27.78" length="0.30" shape="2044.52,1976.40 2044.53,1976.69"/>
    </edge>
    <edge id=":10270798131_0" function="internal">
        <lane id=":10270798131_0_0" index="0" disallow="tram rail_urban rail rail_electric rail_fast ship container cable_car subway aircraft wheelchair scooter drone" speed="11.18" length="0.30" shape="2056.69,1988.58 2056.39,1988.58"/>
    </edge>
    <edge id=":10270798131_1" function="internal">
        <lane id=":10270798131_1_0" index="0" disallow="tram rail_urban rail rail_electric rail_fast ship container cable_car subway aircraft wheelchair scooter drone" speed="11.18" length="0.10" shape="2056.63,1985.38 2056.71,1985.38"/>
    </edge>
    <edge id=":10270798132_0" function="internal">
        <lane id=":10270798132_0_0" index="0" disallow="tram rail_urban rail rail_electric rail_fast ship container cable_car subway aircraft wheelchair scooter drone" speed="27.78" length="0.30" shape="2049.58,1996.46 2049.59,1996.76"/>
        <lane id=":10270798132_0_1" index="1" disallow="tram rail_urban rail rail_electric rail_fast ship container cable_car subway aircraft wheelchair scooter drone" speed="27.78" length="0.30" shape="2046.38,1996.52 2046.39,1996.82"/>
    </edge>
    <edge id=":10270798133_0" function="internal">
        <lane id=":10270798133_0_0" index="0" disallow="tram rail_urban rail rail_electric rail_fast ship container cable_car subway aircraft wheelchair scooter drone" speed="27.78" length="0.30" shape="2034.21,1999.03 2034.21,1998.73"/>
        <lane id=":10270798133_0_1" index="1" disallow="tram rail_urban rail rail_electric rail_fast ship container cable_car subway aircraft wheelchair scooter drone" speed="27.78" length="0.30" shape="2037.41,1998.99 2037.41,1998.69"/>
        <lane id=":10270798133_0_2" index="2" disallow="tram rail_urban rail rail_electric rail_fast ship container cable_car subway aircraft wheelchair scooter drone" speed="27.78" length="0.30" shape="2040.61,1998.95 2040.61,1998.65"/>
    </edge>
    <edge id=":10270798135_0" function="internal">
        <lane id=":10270798135_0_0" index="0" disallow="tram rail_urban rail rail_electric rail_fast ship container cable_car subway aircraft wheelchair scooter drone" speed="11.18" length="8.40" shape="1506.06,1639.05 1497.65,1639.05"/>
    </edge>
    <edge id=":10270798135_1" function="internal">
        <lane id=":10270798135_1_0" index="0" disallow="tram rail_urban rail rail_electric rail_fast ship container cable_car subway aircraft wheelchair scooter drone" speed="6.78" length="9.87" shape="1506.06,1639.05 1504.84,1638.50 1503.96,1636.85 1503.43,1634.09 1503.24,1630.24"/>
    </edge>
    <edge id=":10270798135_2" function="internal">
        <lane id=":10270798135_2_0" index="0" disallow="tram rail_urban rail rail_electric rail_fast ship container cable_car subway aircraft wheelchair scooter drone" speed="3.65" length="4.69" shape="1506.06,1639.05 1504.79,1638.34 1504.33,1637.57 1504.67,1636.74 1505.81,1635.85"/>
    </edge>
    <edge id=":10270798135_3" function="internal">
        <lane id=":10270798135_3_0" index="0" disallow="tram rail_urban rail rail_electric rail_fast ship container cable_car subway aircraft wheelchair scooter drone" speed="6.50" length="9.03" shape="1497.65,1635.85 1500.10,1635.50 1501.85,1634.45 1502.90,1632.69 1503.24,1630.24"/>
    </edge>
    <edge id=":10270798135_4" function="internal">
        <lane id=":10270798135_4_0" index="0" disallow="tram rail_urban rail rail_electric rail_fast ship container cable_car subway aircraft wheelchair scooter drone" speed="11.18" length="8.16" shape="1497.65,1635.85 1505.81,1635.85"/>
    </edge>
    <edge id=":10270798135_5" function="internal">
        <lane id=":10270798135_5_0" index="0" disallow="tram rail_urban rail rail_electric rail_fast ship container cable_car subway aircraft wheelchair scooter drone" speed="3.65" length="4.67" shape="1497.65,1635.85 1498.85,1636.65 1499.25,1637.45 1498.85,1638.25 1497.65,1639.05"/>
    </edge>
    <edge id=":10270805516_0" function="internal">
        <lane id=":10270805516_0_0" index="0" allow="pedestrian delivery bicycle" speed="5.56" length="11.60" shape="501.48,1523.79 493.63,1515.25"/>
    </edge>
    <edge id=":10270805516_1" function="internal">
        <lane id=":10270805516_1_0" index="0" allow="pedestrian delivery bicycle" speed="5.56" length="15.50" shape="501.48,1523.79 498.62,1519.84 498.32,1516.99 500.60,1515.25 505.44,1514.62"/>
    </edge>
    <edge id=":10270805516_2" function="internal">
        <lane id=":10270805516_2_0" index="0" allow="pedestrian delivery bicycle" speed="3.65" length="4.67" shape="501.48,1523.79 501.26,1522.37 501.58,1521.53 502.44,1521.28 503.84,1521.63"/>
    </edge>
    <edge id=":10270805516_3" function="internal">
        <lane id=":10270805516_3_0" index="0" allow="pedestrian delivery bicycle" speed="4.66" length="6.43" shape="505.48,1517.82 503.47,1518.08 502.53,1518.80 502.65,1519.98 503.84,1521.63"/>
    </edge>
    <edge id=":10270805516_4" function="internal">
        <lane id=":10270805516_4_0" index="0" allow="pedestrian delivery bicycle" speed="5.56" length="12.38" shape="505.48,1517.82 501.22,1517.70 497.83,1517.24 495.30,1516.42 493.63,1515.25"/>
    </edge>
    <edge id=":10270805516_5" function="internal">
        <lane id=":10270805516_5_0" index="0" allow="pedestrian delivery bicycle" speed="3.65" length="4.67" shape="505.48,1517.82 504.27,1517.04 503.86,1516.24 504.25,1515.44 505.44,1514.62"/>
    </edge>
    <edge id=":10270805516_6" function="internal">
        <lane id=":10270805516_6_0" index="0" allow="pedestrian delivery bicycle" speed="5.56" length="9.73" shape="495.99,1513.09 497.14,1513.79 499.10,1514.29 501.87,1514.56 505.44,1514.62"/>
    </edge>
    <edge id=":10270805516_7" function="internal">
        <lane id=":10270805516_7_0" index="0" allow="pedestrian delivery bicycle" speed="5.56" length="11.60" shape="495.99,1513.09 503.84,1521.63"/>
    </edge>
    <edge id=":10270805516_8" function="internal">
        <lane id=":10270805516_8_0" index="0" allow="pedestrian delivery bicycle" speed="3.65" length="4.67" shape="495.99,1513.09 496.21,1514.51 495.89,1515.35 495.03,1515.60 493.63,1515.25"/>
    </edge>
    <edge id=":11536743523_0" function="internal">
        <lane id=":11536743523_0_0" index="0" allow="pedestrian delivery bicycle" speed="5.36" length="5.38" shape="446.77,1037.75 445.23,1038.08 444.13,1038.74 443.47,1039.73 443.25,1041.04"/>
    </edge>
    <edge id=":11536743523_1" function="internal">