<?xml version="1.0" encoding="UTF-8"?>

<!-- generated on 2024-11-05 11:06:03.594546 by randomTrips.py v1_21_0+0000-d7b3b481c43
<configuration>
    <net-file value="I10West.net.xml"/>
    <output-trip-file value="I10West.trips.xml"/>
    <validate value="True"/>
    <end value="1000.0"/>
</configuration>
-->

<!-- generated on 2024-11-05 11:06:02 by Eclipse SUMO duarouter Version 1.21.0
<duarouterConfiguration xmlns:xsi="http://www.w3.org/2001/XMLSchema-instance" xsi:noNamespaceSchemaLocation="http://sumo.dlr.de/xsd/duarouterConfiguration.xsd">

    <input>
        <net-file value="I10West.net.xml"/>
        <route-files value="I10West.trips.xml"/>
    </input>

    <output>
        <output-file value="I10West.trips.xml.tmp"/>
        <alternatives-output value="NUL"/>
        <write-trips value="true"/>
    </output>

    <time>
        <begin value="0"/>
        <end value="1000.0"/>
    </time>

    <report>
        <no-warnings value="true"/>
        <ignore-errors value="true"/>
        <no-step-log value="true"/>
    </report>

</duarouterConfiguration>
-->

<routes xmlns:xsi="http://www.w3.org/2001/XMLSchema-instance" xsi:noNamespaceSchemaLocation="http://sumo.dlr.de/xsd/routes_file.xsd">
    <trip id="0" depart="0.00" from="15144457" to="-144965000#2"/>
    <trip id="1" depart="1.00" from="-15163734#1" to="-15156406#1"/>
    <trip id="2" depart="2.00" from="15158053#2" to="15150770#4"/>
    <trip id="3" depart="3.00" from="243864213#1" to="-15138381#10"/>
    <trip id="4" depart="4.00" from="-351211626#10" to="-148646853#8"/>
    <trip id="5" depart="5.00" from="-15155973#3" to="131984101#2"/>
    <trip id="6" depart="6.00" from="-144965056#4" to="-15153924#1"/>
    <trip id="7" depart="7.00" from="15145364#29" to="15128342"/>
    <trip id="8" depart="8.00" from="-15156285#0" to="15139010#4"/>
    <trip id="9" depart="9.00" from="15171258#0" to="-1085270074#0"/>
    <trip id="10" depart="10.00" from="15169063#3" to="15153922#2"/>
    <trip id="11" depart="11.00" from="-15177859#17" to="-15145365#3"/>
    <trip id="12" depart="12.00" from="711239031#0" to="-15177859#31"/>
    <trip id="13" depart="13.00" from="-15138381#4" to="-15139010#4"/>
    <trip id="14" depart="14.00" from="15178313#4" to="15139915#3"/>
    <trip id="15" depart="15.00" from="15170149#0" to="15157747#2"/>
    <trip id="16" depart="16.00" from="150003844#9" to="787356805#8"/>
    <trip id="17" depart="17.00" from="-163792420#0" to="15133490#4"/>
    <trip id="18" depart="18.00" from="15176247#0" to="15142228#45"/>
    <trip id="19" depart="19.00" from="15183933#3" to="15138076#1"/>
    <trip id="20" depart="20.00" from="15154446#10" to="-150036796#15"/>
    <trip id="21" depart="21.00" from="-15156404#6" to="-15167087"/>
    <trip id="22" depart="22.00" from="-15137720#18" to="-15158053#10"/>
    <trip id="23" depart="23.00" from="-15139040#7" to="-15164821#4"/>
    <trip id="24" depart="24.00" from="15144028#3" to="-15186863#8"/>
    <trip id="25" depart="25.00" from="-15186863#10" to="-15155141#11"/>
    <trip id="26" depart="26.00" from="-15162725#2" to="359209841"/>
    <trip id="27" depart="27.00" from="15145364#2" to="15140862#1"/>
    <trip id="28" depart="28.00" from="-15147608#2" to="15157747#16"/>
    <trip id="29" depart="29.00" from="-15146918#0" to="-243864208"/>
    <trip id="30" depart="30.00" from="98058927#3" to="15144545#8"/>
    <trip id="31" depart="31.00" from="15133425#2" to="15151360#3"/>
    <trip id="32" depart="32.00" from="15177867#3" to="15164589#3"/>
    <trip id="33" depart="33.00" from="-15156406#2" to="-148646872#3"/>
    <trip id="34" depart="34.00" from="-15172947#5" to="-15163288#2"/>
    <trip id="35" depart="35.00" from="-15154446#5" to="49416673"/>
    <trip id="36" depart="36.00" from="163792405" to="-15173482#5"/>
    <trip id="37" depart="37.00" from="15145741#2" to="-281586811#11"/>
    <trip id="38" depart="38.00" from="351211553#1" to="-949952974#3"/>
    <trip id="39" depart="39.00" from="-15162375#11" to="-15160591#0"/>
    <trip id="40" depart="40.00" from="15133491#5" to="-15162727#3"/>
    <trip id="41" depart="41.00" from="15138078#2" to="243865987#7"/>
    <trip id="42" depart="42.00" from="-281586808#1" to="-15156404#21"/>
    <trip id="43" depart="43.00" from="99960581#10" to="133066548#5"/>
    <trip id="44" depart="44.00" from="-15138381#30" to="-150036796#21"/>
    <trip id="45" depart="45.00" from="-15139332#1" to="15142541#0"/>
    <trip id="46" depart="46.00" from="15165853#1" to="-357846568#13"/>
    <trip id="47" depart="47.00" from="-15133491#8" to="-243864212#0"/>
    <trip id="48" depart="48.00" from="99960580#4" to="150003857#2"/>
    <trip id="49" depart="49.00" from="787356805#0" to="15183724#1"/>
    <trip id="50" depart="50.00" from="-110436014#8" to="15156404#25"/>
    <trip id="51" depart="51.00" from="15151233#5" to="150036796#33"/>
    <trip id="52" depart="52.00" from="-15162725#1" to="15144596#4"/>
    <trip id="53" depart="53.00" from="-15139915#2" to="-705163146#1"/>
    <trip id="54" depart="54.00" from="-746501229#2" to="681542432#1"/>
    <trip id="55" depart="55.00" from="163792382#8" to="-15162727#7"/>
    <trip id="56" depart="56.00" from="1085270074#1" to="-15150770#0"/>
    <trip id="57" depart="57.00" from="351211537#2" to="155135491#2"/>
    <trip id="58" depart="58.00" from="-15167944#19" to="15144545#2"/>
    <trip id="60" depart="60.00" from="15162725#0" to="150036796#45"/>
    <trip id="61" depart="61.00" from="15164821#15" to="150036776#13"/>
    <trip id="62" depart="62.00" from="-101487524#2" to="-15175153#7"/>
    <trip id="63" depart="63.00" from="-132679537#6" to="357846560#4"/>
    <trip id="64" depart="64.00" from="241413148#2" to="15176263#8"/>
    <trip id="65" depart="65.00" from="-15169063#21" to="-15133044#3"/>
    <trip id="66" depart="66.00" from="164875945" to="49417087#10"/>
    <trip id="67" depart="67.00" from="-15138078#1" to="1052916935#1"/>
    <trip id="68" depart="68.00" from="-15133908#4" to="15162375#4"/>
    <trip id="69" depart="69.00" from="15162736#0" to="-15142228#63"/>
    <trip id="70" depart="70.00" from="-99960579#7" to="15133425#1"/>
    <trip id="71" depart="71.00" from="-15162375#2" to="155135498#3"/>
    <trip id="72" depart="72.00" from="-351211626#5" to="-15155144#0"/>
    <trip id="73" depart="73.00" from="150036776#8" to="15157747#20"/>
    <trip id="74" depart="74.00" from="-15153623#13" to="-15173474#1"/>
    <trip id="75" depart="75.00" from="99960580#0" to="15145365#1"/>
    <trip id="76" depart="76.00" from="-676783202#2" to="148646853#8"/>
    <trip id="77" depart="77.00" from="-15142228#2" to="-15156408#3"/>
    <trip id="78" depart="78.00" from="-15177427#1" to="15139008#1"/>
    <trip id="79" depart="79.00" from="-15156408#2" to="-15156404#26"/>
    <trip id="80" depart="80.00" from="-15135752#7" to="15144028#4"/>
    <trip id="81" depart="81.00" from="-15156406#2" to="281586808#4"/>
    <trip id="82" depart="82.00" from="15182727#2" to="-15135752#7"/>
    <trip id="83" depart="83.00" from="-15158051#3" to="15149387#7"/>
    <trip id="84" depart="84.00" from="-15155141#1" to="-15142538#2"/>
    <trip id="86" depart="86.00" from="-98058916#7" to="15165200#2"/>
    <trip id="87" depart="87.00" from="15170149#2" to="-15153604#0"/>
    <trip id="88" depart="88.00" from="-15139010#2" to="-676783202#2"/>
    <trip id="89" depart="89.00" from="-351211626#8" to="-99960568#2"/>
    <trip id="90" depart="90.00" from="15157747#10" to="15150763#6"/>
    <trip id="91" depart="91.00" from="951902663#1" to="-15139040#13"/>
    <trip id="92" depart="92.00" from="-281586808#8" to="-15177867#5"/>
    <trip id="93" depart="93.00" from="15183933#3" to="-15160592#5"/>
    <trip id="94" depart="94.00" from="-15151241" to="-752331887#1"/>
    <trip id="95" depart="95.00" from="-351211626#1" to="-15164821#8"/>
    <trip id="96" depart="96.00" from="-15159737#12" to="351211553#6"/>
    <trip id="97" depart="97.00" from="-705163146#6" to="15183933#1"/>
    <trip id="98" depart="98.00" from="150036796#60" to="-150036796#39"/>
    <trip id="99" depart="99.00" from="99960581#6" to="15177859#10"/>
    <trip id="100" depart="100.00" from="752331887#0" to="351211626#2"/>
    <trip id="101" depart="101.00" from="15180171#1" to="-15147607#1"/>
    <trip id="102" depart="102.00" from="1036530695#0" to="-15155987#2"/>
    <trip id="103" depart="103.00" from="-281586808#18" to="-15133425#2"/>
    <trip id="104" depart="104.00" from="-163792420#2" to="98058910#0"/>
    <trip id="105" depart="105.00" from="-15162375#2" to="15165200#0"/>
    <trip id="106" depart="106.00" from="-752331884#0" to="-357846568#2"/>
    <trip id="107" depart="107.00" from="711239031#1" to="99960580#10"/>
    <trip id="108" depart="108.00" from="15133117#1" to="15156404#14"/>
    <trip id="109" depart="109.00" from="-15145364#38" to="-15167946#3"/>
    <trip id="110" depart="110.00" from="752331886" to="15138381#11"/>
    <trip id="111" depart="111.00" from="150036796#20" to="15160591#3"/>
    <trip id="112" depart="112.00" from="-15133044#0" to="15138381#36"/>
    <trip id="113" depart="113.00" from="1100861864#1" to="15180863"/>
    <trip id="114" depart="114.00" from="-15145365#0" to="711239031#7"/>
    <trip id="115" depart="115.00" from="-15137720#2" to="-15151241"/>
    <trip id="116" depart="116.00" from="15139010#2" to="15150769#6"/>
    <trip id="117" depart="117.00" from="-15157747#22" to="-15142228#21"/>
    <trip id="118" depart="118.00" from="243864209#8" to="-15160403#1"/>
    <trip id="119" depart="119.00" from="15139008#0" to="15142228#49"/>
    <trip id="120" depart="120.00" from="-351211553#5" to="15138381#34"/>
    <trip id="121" depart="121.00" from="148646852" to="357846568#3"/>
    <trip id="122" depart="122.00" from="-15153924#2" to="15156285#6"/>
    <trip id="123" depart="123.00" from="-15158053#11" to="-281586811#12"/>
    <trip id="124" depart="124.00" from="15149387#4" to="-15169063#18"/>
    <trip id="125" depart="125.00" from="-15172947#9" to="15160741#3"/>
    <trip id="126" depart="126.00" from="-15136775#3" to="-949952974#0"/>
    <trip id="127" depart="127.00" from="99960581#15" to="99960580#4"/>
    <trip id="128" depart="128.00" from="-15136778#0" to="-15155973#3"/>
    <trip id="129" depart="129.00" from="-15162375#2" to="357846568#11"/>
    <trip id="130" depart="130.00" from="242650262#1" to="241413148#2"/>
    <trip id="131" depart="131.00" from="-15186340" to="-15146394#2"/>
    <trip id="132" depart="132.00" from="15177128#0" to="15154446#15"/>
    <trip id="133" depart="133.00" from="15140853#1" to="98058916#2"/>
    <trip id="134" depart="134.00" from="15145365#0" to="-1085270074#7"/>
    <trip id="135" depart="135.00" from="15173482#1" to="-15169063#14"/>
    <trip id="136" depart="136.00" from="15147176#1" to="464009355#1"/>
    <trip id="137" depart="137.00" from="-15142539#0" to="-15140860#4"/>
    <trip id="138" depart="138.00" from="-15139301#25" to="15133491#1"/>
    <trip id="139" depart="139.00" from="-15163006#5" to="15139915#9"/>
    <trip id="140" depart="140.00" from="15156331#0" to="-15154446#12"/>
    <trip id="141" depart="141.00" from="15142546#3" to="-15162736#0"/>
    <trip id="142" depart="142.00" from="1052916921" to="281586808#4"/>
    <trip id="143" depart="143.00" from="15178313#11" to="-15138381#37"/>
    <trip id="144" depart="144.00" from="-351211626#8" to="-15164821#14"/>
    <trip id="145" depart="145.00" from="-1036530695#0" to="15163988#4"/>
    <trip id="146" depart="146.00" from="15144447#2" to="-15162725#7"/>
    <trip id="147" depart="147.00" from="15158820#8" to="15133490#2"/>
    <trip id="148" depart="148.00" from="-357846564#1" to="-1100861865#0"/>
    <trip id="149" depart="149.00" from="-15137006#2" to="243367504#3"/>
    <trip id="151" depart="151.00" from="15177134#2" to="15138381#28"/>
    <trip id="152" depart="152.00" from="-15144596#1" to="-15142228#59"/>
    <trip id="153" depart="153.00" from="-15169063#25" to="243865988#3"/>
    <trip id="154" depart="154.00" from="15167944#21" to="15183724#0"/>
    <trip id="155" depart="155.00" from="243873785#3" to="-15155141#14"/>
    <trip id="156" depart="156.00" from="-15159737#11" to="-15139301#0"/>
    <trip id="157" depart="157.00" from="15164821#6" to="243864199#1"/>
    <trip id="158" depart="158.00" from="-281586811#26" to="15142228#55"/>
    <trip id="159" depart="159.00" from="-15145364#37" to="357846561#11"/>
    <trip id="160" depart="160.00" from="15184161#7" to="787356807#2"/>
    <trip id="161" depart="161.00" from="15172947#0" to="242650262#0"/>
    <trip id="162" depart="162.00" from="-144965000#3" to="15158053#8"/>
    <trip id="163" depart="163.00" from="-15176247#1" to="357846561#6"/>
    <trip id="164" depart="164.00" from="15169063#0" to="15184161#4"/>
    <trip id="165" depart="165.00" from="15172947#0" to="-15163030#1"/>
    <trip id="166" depart="166.00" from="15165339#5" to="-15139301#6"/>
    <trip id="167" depart="167.00" from="155135498#5" to="15182718#4"/>
    <trip id="168" depart="168.00" from="-15156404#1" to="15173482#0"/>
    <trip id="169" depart="169.00" from="-787356806#10" to="-15171255#2"/>
    <trip id="170" depart="170.00" from="15167944#18" to="-15157747#12"/>
    <trip id="171" depart="171.00" from="-144203051#8" to="-15153606#4"/>
    <trip id="172" depart="172.00" from="-15175153#11" to="15184161#5"/>
    <trip id="173" depart="173.00" from="746501229#1" to="-15164822#1"/>
    <trip id="174" depart="174.00" from="15144542#7" to="-281586811#6"/>
    <trip id="175" depart="175.00" from="950073359#10" to="150036796#3"/>
    <trip id="176" depart="176.00" from="49416640" to="-15140860#4"/>
    <trip id="177" depart="177.00" from="768408124#5" to="-15150770#0"/>
    <trip id="178" depart="178.00" from="711239033#6" to="-15163006#1"/>
    <trip id="179" depart="179.00" from="-15139301#32" to="-705163146#0"/>
    <trip id="180" depart="180.00" from="15157482#0" to="-15173482#11"/>
    <trip id="181" depart="181.00" from="15139301#32" to="144203051#5"/>
    <trip id="182" depart="182.00" from="-243864201#5" to="15138075#1"/>
    <trip id="183" depart="183.00" from="-15160592#7" to="15155141#1"/>
    <trip id="184" depart="184.00" from="-1036530693#2" to="351211626#0"/>
    <trip id="185" depart="185.00" from="150036776#3" to="15156404#19"/>
    <trip id="186" depart="186.00" from="15158862#2" to="15150763#10"/>
    <trip id="187" depart="187.00" from="-15183933#3" to="-15135752#2"/>
    <trip id="188" depart="188.00" from="15147604#1" to="-15177128#2"/>
    <trip id="189" depart="189.00" from="-15172947#11" to="15178313#7"/>
    <trip id="190" depart="190.00" from="15156404#14" to="-15169063#19"/>
    <trip id="191" depart="191.00" from="-15169063#7" to="-351211553#33"/>
    <trip id="192" depart="192.00" from="-281586808#7" to="-15167944#7"/>
    <trip id="193" depart="193.00" from="-15142228#50" to="-357846564#3"/>
    <trip id="195" depart="195.00" from="281586808#14" to="15142228#3"/>
    <trip id="196" depart="196.00" from="-15167944#30" to="15133044#1"/>
    <trip id="197" depart="197.00" from="-101487524#1" to="-15165484#4"/>
    <trip id="198" depart="198.00" from="-357846568#14" to="15138381#15"/>
    <trip id="199" depart="199.00" from="15145365#4" to="-98058916#3"/>
    <trip id="200" depart="200.00" from="-705163146#11" to="-15155987#2"/>
    <trip id="201" depart="201.00" from="-99960564#0" to="244619094#3"/>
    <trip id="202" depart="202.00" from="15167944#21" to="-15149053#5"/>
    <trip id="203" depart="203.00" from="-15138075#2" to="148646852"/>
    <trip id="204" depart="204.00" from="15142542#0" to="-15177859#25"/>
    <trip id="205" depart="205.00" from="15173482#4" to="15160596#4"/>
    <trip id="206" depart="206.00" from="15149389#0" to="-15156408#2"/>
    <trip id="207" depart="207.00" from="-15153607#0" to="-144964992#1"/>
    <trip id="208" depart="208.00" from="-15158820#6" to="101487524#5"/>
    <trip id="209" depart="209.00" from="15180171#7" to="-15136775#6"/>
    <trip id="210" depart="210.00" from="-351211553#24" to="15142546#6"/>
    <trip id="211" depart="211.00" from="-15153121#1" to="15153623#3"/>
    <trip id="213" depart="213.00" from="15146015#2" to="-1073781688#6"/>
    <trip id="214" depart="214.00" from="15160595#0" to="15163734#1"/>
    <trip id="215" depart="215.00" from="-15139301#23" to="-41016140#1"/>
    <trip id="216" depart="216.00" from="-15149387#9" to="711239031#11"/>
    <trip id="217" depart="217.00" from="144203051#0" to="-150036796#37"/>
    <trip id="218" depart="218.00" from="-15159737#1" to="15178313#9"/>
    <trip id="219" depart="219.00" from="-768408124#1" to="15168988#0"/>
    <trip id="220" depart="220.00" from="15147608#0" to="98058916#5"/>
    <trip id="221" depart="221.00" from="15139010#4" to="639270438#1"/>
    <trip id="222" depart="222.00" from="243864212#1" to="15142228#16"/>
    <trip id="223" depart="223.00" from="15156404#12" to="1259555661"/>
    <trip id="224" depart="224.00" from="15176254" to="15133044#0"/>
    <trip id="225" depart="225.00" from="243865988#0" to="15159543#8"/>
    <trip id="226" depart="226.00" from="-99960579#3" to="-15162375#2"/>
    <trip id="227" depart="227.00" from="-15159543#12" to="15144543#2"/>
    <trip id="228" depart="228.00" from="15162736#0" to="149137133#0"/>
    <trip id="229" depart="229.00" from="15142228#6" to="-15164589#4"/>
    <trip id="230" depart="230.00" from="-15137642#1" to="-15165484#12"/>
    <trip id="231" depart="231.00" from="-15163006#2" to="-15174365#4"/>
    <trip id="232" depart="232.00" from="150036796#10" to="-15144447#4"/>
    <trip id="233" depart="233.00" from="-15157234#1" to="15153607#1"/>
    <trip id="234" depart="234.00" from="15154446#2" to="-15133689#0"/>
    <trip id="235" depart="235.00" from="-281586811#5" to="150036796#61"/>
    <trip id="236" depart="236.00" from="-351211553#30" to="-15154446#8"/>
    <trip id="237" depart="237.00" from="-351211612#0" to="281586808#19"/>
    <trip id="238" depart="238.00" from="15138076#1" to="15153623#12"/>
    <trip id="239" depart="239.00" from="15182061#0" to="15162736#2"/>
    <trip id="240" depart="240.00" from="-241413148#4" to="-1073781688#8"/>
    <trip id="241" depart="241.00" from="-15180171#2" to="15161598#10"/>
    <trip id="242" depart="242.00" from="15181632#0" to="680441005"/>
    <trip id="243" depart="243.00" from="-351211553#47" to="15160591#1"/>
    <trip id="244" depart="244.00" from="150036796#4" to="15139915#0"/>
    <trip id="245" depart="245.00" from="-15156285#1" to="-15156404#22"/>
    <trip id="246" depart="246.00" from="-49416682#2" to="-148646853#4"/>
    <trip id="247" depart="247.00" from="-15177128#0" to="15151233#6"/>
    <trip id="248" depart="248.00" from="-281586811#15" to="-15147604#6"/>
    <trip id="249" depart="249.00" from="-950073359#4" to="-15142228#6"/>
    <trip id="250" depart="250.00" from="15142228#38" to="-148646850"/>
    <trip id="251" depart="251.00" from="-243865987#4" to="15136775#2"/>
    <trip id="252" depart="252.00" from="-148646851#1" to="15145364#16"/>
    <trip id="253" depart="253.00" from="-15142542#2" to="-951902663#1"/>
    <trip id="254" depart="254.00" from="-150036796#40" to="-243864203#3"/>
    <trip id="255" depart="255.00" from="-15154446#8" to="-15176263#0"/>
    <trip id="256" depart="256.00" from="15162375#3" to="-243864203#3"/>
    <trip id="257" depart="257.00" from="15160596#4" to="15176265#0"/>
    <trip id="258" depart="258.00" from="-15160591#0" to="-15137720#5"/>
    <trip id="259" depart="259.00" from="-132679537#5" to="150036796#45"/>
    <trip id="260" depart="260.00" from="99960581#9" to="-15181632#2"/>
    <trip id="261" depart="261.00" from="15145364#30" to="15165125#0"/>
    <trip id="262" depart="262.00" from="15145364#38" to="15161598#3"/>
    <trip id="263" depart="263.00" from="639270438#1" to="-15153924#3"/>
    <trip id="264" depart="264.00" from="-132679569#1" to="-15145364#37"/>
    <trip id="265" depart="265.00" from="-15142228#45" to="15149388"/>
    <trip id="266" depart="266.00" from="15133689#16" to="-15156404#15"/>
    <trip id="267" depart="267.00" from="15153922#0" to="15163006#2"/>
    <trip id="268" depart="268.00" from="-15147604#4" to="15140858#2"/>
    <trip id="269" depart="269.00" from="15160403#0" to="-15140860#0"/>
    <trip id="270" depart="270.00" from="15173482#9" to="746501228#15"/>
    <trip id="271" depart="271.00" from="-15139301#30" to="-144965000#6"/>
    <trip id="272" depart="272.00" from="-15171258#0" to="15150770#8"/>
    <trip id="273" depart="273.00" from="711239031#13" to="-281586811#17"/>
    <trip id="274" depart="274.00" from="15155987#1" to="-15137267#1"/>
    <trip id="275" depart="275.00" from="15153140#1" to="15142539#3"/>
    <trip id="276" depart="276.00" from="-15139048#1" to="15164561#10"/>
    <trip id="277" depart="277.00" from="15180719#0" to="15139301#32"/>
    <trip id="278" depart="278.00" from="-15142228#2" to="951902662#0"/>
    <trip id="279" depart="279.00" from="15165125#13" to="-15180719#4"/>
    <trip id="280" depart="280.00" from="-357846564#5" to="-163792382#7"/>
    <trip id="281" depart="281.00" from="110436014#7" to="-15178309#6"/>
    <trip id="282" depart="282.00" from="15180171#6" to="15174362#9"/>
    <trip id="283" depart="283.00" from="-15139301#18" to="711239031#8"/>
    <trip id="284" depart="284.00" from="15144028#2" to="15175951#0"/>
    <trip id="285" depart="285.00" from="15154446#4" to="-705163146#3"/>
    <trip id="286" depart="286.00" from="15158051#0" to="746501228#2"/>
    <trip id="287" depart="287.00" from="-15162736#0" to="15170150#0"/>
    <trip id="288" depart="288.00" from="150036776#2" to="1052916927#1"/>
    <trip id="289" depart="289.00" from="-49416682#1" to="15157747#26"/>
    <trip id="290" depart="290.00" from="-15162727#2" to="15180862#0"/>
    <trip id="291" depart="291.00" from="15176263#0" to="-15138381#0"/>
    <trip id="292" depart="292.00" from="242650263" to="-15159737#12"/>
    <trip id="293" depart="293.00" from="-932946882#0" to="15142212#0"/>
    <trip id="294" depart="294.00" from="-163792420#2" to="-148646853#2"/>
    <trip id="295" depart="295.00" from="15180719#3" to="-15151233#7"/>
    <trip id="296" depart="296.00" from="-15154939#1" to="15167944#3"/>
    <trip id="297" depart="297.00" from="-15177859#17" to="242650259#0"/>
    <trip id="298" depart="298.00" from="15153927#0" to="-15164821#12"/>
    <trip id="299" depart="299.00" from="-110436014#1" to="49417087#4"/>
    <trip id="300" depart="300.00" from="-15138078#1" to="15156404#22"/>
    <trip id="301" depart="301.00" from="1052916921" to="15162367#3"/>
    <trip id="302" depart="302.00" from="15153140#1" to="15145364#31"/>
    <trip id="303" depart="303.00" from="1052916926#2" to="15165853#6"/>
    <trip id="304" depart="304.00" from="-15138381#40" to="-15156404#33"/>
    <trip id="305" depart="305.00" from="15153604#0" to="-15171258#3"/>
    <trip id="306" depart="306.00" from="15138071#0" to="-99960581#8"/>
    <trip id="307" depart="307.00" from="149892584#1" to="-41016140#2"/>
    <trip id="308" depart="308.00" from="15159737#13" to="-15177137"/>
    <trip id="309" depart="309.00" from="15153932#2" to="-15164561#1"/>
    <trip id="310" depart="310.00" from="-15159737#9" to="-15142228#25"/>
    <trip id="311" depart="311.00" from="-15152815#0" to="-15142228#2"/>
    <trip id="312" depart="312.00" from="150003844#7" to="15162725#3"/>
    <trip id="313" depart="313.00" from="-15151233#3" to="-15156335#1"/>
    <trip id="314" depart="314.00" from="1036530694#1" to="15156406#5"/>
    <trip id="315" depart="315.00" from="879078615#1" to="149892584#6"/>
    <trip id="316" depart="316.00" from="-15164821#15" to="-15139040#8"/>
    <trip id="317" depart="317.00" from="-15153121#0" to="-15157747#12"/>
    <trip id="318" depart="318.00" from="-15150763#4" to="-111777397#3"/>
    <trip id="319" depart="319.00" from="150003837#2" to="-15164589#2"/>
    <trip id="320" depart="320.00" from="787356806#3" to="15133491#10"/>
    <trip id="321" depart="321.00" from="15153623#13" to="-15142228#53"/>
    <trip id="322" depart="322.00" from="15186863#5" to="1073781688#1"/>
    <trip id="323" depart="323.00" from="155135498#8" to="15137720#5"/>
    <trip id="324" depart="324.00" from="-960074321#3" to="-711239031#9"/>
    <trip id="325" depart="325.00" from="-15151111#1" to="-150036796#42"/>
    <trip id="326" depart="326.00" from="49416651" to="1036530694#5"/>
    <trip id="327" depart="327.00" from="15174362#6" to="-281586836#1"/>
    <trip id="328" depart="328.00" from="-15136778#5" to="15142546#4"/>
    <trip id="329" depart="329.00" from="-150036796#57" to="-15145364#21"/>
    <trip id="330" depart="330.00" from="15133689#1" to="-15170149#4"/>
    <trip id="331" depart="331.00" from="99960579#1" to="-15142228#14"/>
    <trip id="332" depart="332.00" from="15162727#2" to="15140856#0"/>
    <trip id="333" depart="333.00" from="15165484#4" to="-15157234#2"/>
    <trip id="334" depart="334.00" from="148646851#1" to="-787356804#2"/>
    <trip id="335" depart="335.00" from="-705163146#4" to="15182727#5"/>
    <trip id="336" depart="336.00" from="99960562#1" to="-15171255#3"/>
    <trip id="337" depart="337.00" from="15142228#31" to="15140865#1"/>
    <trip id="338" depart="338.00" from="15158820#13" to="49417087#13"/>
    <trip id="339" depart="339.00" from="-15154446#0" to="-15155141#6"/>
    <trip id="340" depart="340.00" from="15146662#4" to="-15146015#3"/>
    <trip id="341" depart="341.00" from="-15149385#1" to="-15137006#1"/>
    <trip id="342" depart="342.00" from="-1036530694#4" to="-787356804#2"/>
    <trip id="343" depart="343.00" from="15138414#3" to="-15167944#17"/>
    <trip id="344" depart="344.00" from="-15157234#2" to="15155074#0"/>
    <trip id="345" depart="345.00" from="15153932#3" to="-787356806#4"/>
    <trip id="346" depart="346.00" from="15152523#1" to="351211553#9"/>
    <trip id="347" depart="347.00" from="15165341" to="15142228#9"/>
    <trip id="348" depart="348.00" from="15146920#1" to="357846568#14"/>
    <trip id="349" depart="349.00" from="-357846560#3" to="15126617#1"/>
    <trip id="350" depart="350.00" from="15145364#18" to="281586811#19"/>
    <trip id="351" depart="351.00" from="15175153#17" to="-15135776#0"/>
    <trip id="352" depart="352.00" from="-15147176#0" to="-15172947#12"/>
    <trip id="353" depart="353.00" from="15160591#3" to="15137642#0"/>
    <trip id="354" depart="354.00" from="-15165125#8" to="-15142228#43"/>
    <trip id="355" depart="355.00" from="15152815#2" to="15153927#2"/>
    <trip id="356" depart="356.00" from="49416680#0" to="111777382#4"/>
    <trip id="357" depart="357.00" from="1052916936" to="-15137720#21"/>
    <trip id="358" depart="358.00" from="-150003844#6" to="-680429945#2"/>
    <trip id="359" depart="359.00" from="-15173485#1" to="-15160741#1"/>
    <trip id="360" depart="360.00" from="-15138381#32" to="711239033#2"/>
    <trip id="361" depart="361.00" from="15177859#0" to="15138071#2"/>
    <trip id="362" depart="362.00" from="676783202#0" to="99960581#7"/>
    <trip id="363" depart="363.00" from="15149387#7" to="-15163988#2"/>
    <trip id="364" depart="364.00" from="-150003844#8" to="15162282#4"/>
    <trip id="365" depart="365.00" from="-98058916#0" to="15146015#1"/>
    <trip id="366" depart="366.00" from="351211553#18" to="-15151233#5"/>
    <trip id="367" depart="367.00" from="15138381#0" to="15144539#0"/>
    <trip id="368" depart="368.00" from="1052916929#1" to="-15138381#31"/>
    <trip id="369" depart="369.00" from="-15178309#5" to="-15177859#15"/>
    <trip id="370" depart="370.00" from="15149053#6" to="15182687#4"/>
    <trip id="371" depart="371.00" from="-15175153#3" to="15153607#0"/>
    <trip id="372" depart="372.00" from="-15165125#6" to="49416980"/>
    <trip id="373" depart="373.00" from="15172947#8" to="15133425#2"/>
    <trip id="374" depart="374.00" from="-752331883#1" to="-15173482#4"/>
    <trip id="375" depart="375.00" from="-15174362#1" to="768408124#2"/>
    <trip id="376" depart="376.00" from="-281586811#15" to="144965056#4"/>
    <trip id="377" depart="377.00" from="98058916#7" to="15146921#0"/>
    <trip id="378" depart="378.00" from="150036796#22" to="-351211612#6"/>
    <trip id="379" depart="379.00" from="-15151236#16" to="-15185811#2"/>
    <trip id="380" depart="380.00" from="15162282#1" to="15142230#1"/>
    <trip id="381" depart="381.00" from="15162367#8" to="-15154446#11"/>
    <trip id="382" depart="382.00" from="150036796#55" to="351211626#9"/>
    <trip id="383" depart="383.00" from="-676783202#2" to="15153923"/>
    <trip id="384" depart="384.00" from="-15142228#21" to="787356805#8"/>
    <trip id="386" depart="386.00" from="-15145741#0" to="15133425#6"/>
    <trip id="387" depart="387.00" from="15128342" to="-15138381#5"/>
    <trip id="388" depart="388.00" from="99960564#0" to="317594252#0"/>
    <trip id="389" depart="389.00" from="-787356806#5" to="-15142228#1"/>
    <trip id="390" depart="390.00" from="15176263#8" to="110436014#6"/>
    <trip id="391" depart="391.00" from="15156285#0" to="133066548#1"/>
    <trip id="392" depart="392.00" from="-15163094#1" to="15177138"/>
    <trip id="393" depart="393.00" from="949952974#3" to="-15159737#12"/>
    <trip id="394" depart="394.00" from="150036796#9" to="-243865987#10"/>
    <trip id="395" depart="395.00" from="351211553#46" to="132679569#1"/>
    <trip id="396" depart="396.00" from="241413148#5" to="15184161#3"/>
    <trip id="397" depart="397.00" from="-15164049#1" to="15165484#15"/>
    <trip id="398" depart="398.00" from="-351211553#26" to="357846568#17"/>
    <trip id="399" depart="399.00" from="111777382#4" to="15174362#10"/>
    <trip id="400" depart="400.00" from="-15164821#14" to="-15169063#10"/>
    <trip id="401" depart="401.00" from="15138381#17" to="99960581#4"/>
    <trip id="402" depart="402.00" from="1052916924#0" to="-15145364#18"/>