<?xml version="1.0" encoding="UTF-8"?>

<!-- generated on 2024-11-05 11:06:51 by Eclipse SUMO duarouter Version 1.21.0
<duarouterConfiguration xmlns:xsi="http://www.w3.org/2001/XMLSchema-instance" xsi:noNamespaceSchemaLocation="http://sumo.dlr.de/xsd/duarouterConfiguration.xsd">

    <input>
        <net-file value="I10West.net.xml"/>
        <route-files value="I10West.trips.xml"/>
    </input>

    <output>
        <output-file value="I10West.rou.xml"/>
    </output>

</duarouterConfiguration>
-->

<routes xmlns:xsi="http://www.w3.org/2001/XMLSchema-instance" xsi:noNamespaceSchemaLocation="http://sumo.dlr.de/xsd/routes_file.xsd">
    <vehicle id="0" depart="0.00">
        <route edges="15144457 -15139301#23 -15139301#22 -15139301#21 -15139301#20 -15139301#19 -15139301#18 -15139301#17 -15139301#16 -15139301#15 -15139301#14 -149892607#1 -149892607#0 -149892611 -243864862#4 -243864862#3 -243864862#2 -243864862#1 -243864862#0 -49416671 -49416672 -150003857#3 -150003857#2 -150003857#1 -150003857#0 -1073781688#9 -1073781688#8 -1073781688#7 -1073781688#6 -1073781688#5 -1073781688#4 -1073781688#3 -1073781688#2 -1073781688#1 -1073781688#0 -144965000#7 -144965000#6 -144965000#5 -144965000#4 -144965000#3 -144965000#2"/>
    </vehicle>
    <vehicle id="1" depart="1.00">
        <route edges="-15163734#1 -15163734#0 -243864201#13 -243864201#12 -243864201#11 -243864201#10 -243864201#9 -243864201#8 -243864201#7 -243864201#6 -243864201#5 -243864201#4 -243864201#3 -243864201#2 -243864201#1 -243864201#0 -1036530693#2 -1036530693#1 -1036530693#0 -1011834119#1 -1011834119#0 -1036530695#1 -1036530695#0 -1036530696 -15177427#1 -15177427#0 15153140#0 15153140#1 1100861865#0 1100861865#1 1100861865#2 144203051#0 144203051#1 144203051#2 144203051#3 144203051#4 144203051#5 144203051#6 144203051#7 144203051#8 711239032 711239031#0 711239031#1 711239031#2 711239031#3 711239031#4 711239031#5 711239031#6 711239031#7 711239031#8 711239031#9 711239031#10 711239031#11 711239031#12 711239031#13 15156406#0 15156406#1 -15156406#1"/>
    </vehicle>
    <vehicle id="2" depart="2.00">
        <route edges="15158053#2 15158053#3 15158053#4 -15160591#1 -15160591#0 1052916929#1 1052916929#2 1052916930#0 1052916930#1 1052916931 1052916933 242650259#0 242650259#1 242650259#2 242650259#3 -15146395#1 -15146395#0 15150770#0 15150770#1 15150770#2 15150770#3 15150770#4"/>
    </vehicle>
    <vehicle id="3" depart="3.00">
        <route edges="243864213#1 243864213#2 152184113#9 152184113#10 152184113#0 152184113#1 152184113#2 152184113#3 243864202#0 243864202#1 -243864201#14 -243864201#13 -243864201#12 -243864201#11 -243864201#10 -243864201#9 -243864201#8 -243864201#7 -243864201#6 -243864201#5 -243864201#4 -243864201#3 -243864201#2 -243864201#1 -243864201#0 -1036530693#2 -1036530693#1 -1036530693#0 -1011834119#1 -1011834119#0 -1036530695#1 -1036530695#0 -1036530696 -15177427#1 -15177427#0 15153140#0 15153140#1 1100861865#0 1100861865#1 1100861865#2 -150036796#59 -150036796#58 -150036796#57 -150036796#56 -150036796#55 -150036796#54 -150036796#53 -150036796#52 -150036796#51 -150036796#50 -150036796#49 -150036796#48 -150036796#47 -150036796#46 -150036796#45 -150036796#44 -150036796#43 -150036796#42 -150036796#41 -150036796#40 -150036796#39 -150036796#38 -150036796#37 -150036796#36 -150036796#35 -150036796#34 -150036796#33 -150036796#32 -150036796#31 -150036796#30 -150036796#29 -150036796#28 -150036796#27 -150036796#26 -150036796#25 -150036796#24 -150036796#23 -150036796#22 -150036796#21 -150036796#20 -150036796#19 -150036796#18 99960562#7 99960562#8 99960562#9 -15138381#10"/>
    </vehicle>
    <vehicle id="4" depart="4.00">
        <route edges="-351211626#10 -15167944#9 -15167944#8 99960580#4 99960580#5 99960580#6 99960580#7 99960580#8 99960580#9 99960580#10 150003837#0 150003837#1 150003837#2 150003837#3 49416980 1053275369 1053275370#0 1053275370#1 1053275370#2 1053275370#3 1053275371 1053275372 1053275373 49417084#0 49417084#1 1053275374 1053275376 1053275375#0 1053275375#1 1053275377 98058927#2 98058927#3 1052916924#0 1052916924#1 1052916924#2 98058910#0 98058910#1 98058910#2 98058910#3 98058910#4 148646872#0 148646872#1 148646872#2 148646872#3 148646872#4 148646872#5 148646872#6 148646872#7 148646872#8 148646872#9 148646872#10 148646872#11 148646853#0 148646853#1 148646853#2 148646853#3 148646853#4 148646853#5 148646853#6 148646853#7 148646853#8 -148646853#8"/>
    </vehicle>
    <vehicle id="5" depart="5.00">
        <route edges="-15155973#3 15155973#3 -15175153#8 -15175153#7 -15175153#6 -15175153#5 -15175153#4 -15175153#3 -15175153#2 -15175153#1 -15175153#0 -241413148#5 -241413148#4 -241413148#3 -241413148#2 -241413148#1 -241413148#0 -351211553#23 -351211553#22 -351211553#21 -351211553#20 -351211553#19 -351211553#18 -351211553#17 -351211553#16 -351211553#15 -351211553#14 -351211553#13 -351211553#12 -351211553#11 -351211553#10 -351211553#9 -351211553#8 -351211553#7 -351211553#6 -351211553#5 131984101#0 131984101#1 131984101#2"/>
    </vehicle>
    <vehicle id="6" depart="6.00">
        <route edges="-144965056#4 144965056#4 371968524#0 371968524#1 -371968525 -111633881 -111633877 -752331884#1 -752331884#0 -752331885 -752331883#1 -752331883#0 -752331886 -243873785#5 -243873785#4 -243873785#3 -243873785#2 -243873785#1 -243873785#0 -351211628#3 15184161#9 15184161#10 15184161#11 15184161#12 15184161#13 15184161#14 15184161#15 15184161#16 787356806#0 787356806#1 787356806#2 787356806#3 787356806#4 787356806#5 787356806#6 787356806#7 -15153924#3 -15153924#2 -15153924#1"/>
    </vehicle>
    <vehicle id="7" depart="7.00">
        <route edges="15145364#29 15145364#30 15145364#31 15145364#32 15145364#33 15145364#34 15145364#35 15153140#1 1100861865#0 1100861865#1 1100861865#2 144203051#0 144203051#1 144203051#2 144203051#3 144203051#4 144203051#5 144203051#6 144203051#7 144203051#8 711239032 711239031#0 711239031#1 711239031#2 711239031#3 711239031#4 711239031#5 711239031#6 711239031#7 711239031#8 711239031#9 711239031#10 711239031#11 711239031#12 711239031#13 711239031#14 711239031#15 711239031#16 711239031#17 711239031#18 711239031#19 711239031#20 98058927#0 98058927#1 98058927#2 98058927#3 1052916925 1052916927#0 1052916927#1 1052916928 15129499 49416643#1 49416650 49416651 15128342"/>
    </vehicle>
    <vehicle id="8" depart="8.00">
        <route edges="-15156285#0 243864200#0 243864200#1 152184113#7 152184113#8 152184113#9 152184113#10 152184113#0 152184113#1 152184113#2 152184113#3 243864202#0 243864202#1 -243864201#14 -243864201#13 -243864201#12 -243864201#11 -243864201#10 -243864201#9 -243864201#8 -243864201#7 -243864201#6 -243864201#5 -243864201#4 -243864201#3 -243864201#2 -243864201#1 -243864201#0 -1036530693#2 -1036530693#1 -1036530693#0 -1011834119#1 -1011834119#0 -1036530695#1 -1036530695#0 -1036530696 -15177427#1 -15177427#0 15153140#0 15153140#1 1100861865#0 1100861865#1 1100861865#2 144203051#0 144203051#1 144203051#2 144203051#3 144203051#4 144203051#5 144203051#6 144203051#7 144203051#8 711239032 711239031#0 711239031#1 711239031#2 711239031#3 -243865987#4 -243865987#3 -243865987#2 -243865987#1 -243865987#0 -163792382#12 -163792382#11 -163792382#10 -163792382#9 -163792382#8 -163792382#7 -163792382#6 -163792382#5 -163792382#4 -163792382#3 -163792382#2 -163792382#1 -163792382#0 163792410 365948019#0 365948019#1 365948019#2 163792411 -243865988#5 -243865988#4 -243865988#3 -243865988#2 -243865988#1 -243865988#0 -15157747#26 -15157747#25 -15157747#24 -15157747#23 -15157747#22 -15157747#21 -15157747#20 -15157747#19 -15157747#18 -15157747#17 -15157747#16 -15157747#15 -15157747#14 -15157747#13 -15157747#12 -15157747#11 -15157747#10 -15157747#9 -15157747#8 -15157747#7 -15157747#6 -15157747#5 -15157747#4 155135498#6 155135498#7 155135498#8 155135498#9 155135498#10 144965000#3 15139010#0 15139010#1 15139010#2 15139010#3 15139010#4"/>
    </vehicle>
    <vehicle id="9" depart="9.00">
        <route edges="15171258#0 15171258#1 -15171258#1 -15171258#0 -149892611 -243864862#4 -243864862#3 -243864862#2 -243864862#1 -243864862#0 -49416671 -49416672 -150003857#3 508006544 49416980 1053275369 1053275370#0 1053275370#1 1053275370#2 1053275370#3 1053275371 1053275372 1053275373 49417084#0 49417084#1 1053275374 1053275376 1053275375#0 1053275375#1 98058924 -711239031#20 -711239031#19 -711239031#18 -711239031#17 -711239031#16 -711239031#15 -711239031#14 -711239031#13 -711239031#12 -711239031#11 -711239031#10 -711239031#9 -711239031#8 -711239031#7 -711239031#6 -711239031#5 -711239031#4 -711239031#3 -711239031#2 -711239031#1 -711239031#0 -711239032 -144203051#8 -144203051#7 -144203051#6 -144203051#5 -144203051#4 -144203051#3 -144203051#2 -144203051#1 -144203051#0 150036796#60 150036796#61 150036796#62 110435997 951902663#0 951902663#1 951902663#2 951902662#0 951902662#1 -705163146#3 -705163146#2 -705163146#1 -705163146#0 1085270075#0 1085270075#1 -1085270074#9 -1085270074#8 -1085270074#7 -1085270074#6 -1085270074#5 -1085270074#4 -1085270074#3 -1085270074#2 -1085270074#1 -1085270074#0"/>
    </vehicle>
    <vehicle id="10" depart="10.00">
        <route edges="15169063#3 15169063#4 15169063#5 15169063#6 15169063#7 15165200#10 99960580#0 99960580#1 99960580#2 99960580#3 99960580#4 99960580#5 99960580#6 99960580#7 99960580#8 99960580#9 99960580#10 150003837#0 150003837#1 150003837#2 150003837#3 49416980 1053275369 1053275370#0 1053275370#1 1053275370#2 1053275370#3 1053275371 15155800 1052916936 15146662#0 15153922#0 15153922#1 15153922#2"/>
    </vehicle>
    <vehicle id="11" depart="11.00">
        <route edges="-15177859#17 -15177859#16 -15177859#15 -15177859#14 -15162725#5 -150036796#27 -150036796#26 -150036796#25 -150036796#24 -150036796#23 -150036796#22 -150036796#21 -150036796#20 -150036796#19 -150036796#18 -150036796#17 -150036796#16 -150036796#15 -150036796#14 -150036796#13 -150036796#12 -15153606#11 -15153606#10 -15153606#9 -15153606#8 -15153606#7 -15153606#6 -15153606#5 -15153606#4 -15145365#5 -15145365#4 -15145365#3"/>
    </vehicle>
    <vehicle id="12" depart="12.00">
        <route edges="711239031#0 711239031#1 711239031#2 711239031#3 -711239031#3 -711239031#2 -711239031#1 -711239031#0 -711239032 -144203051#8 -144203051#7 -144203051#6 -144203051#5 -144203051#4 -144203051#3 -144203051#2 -144203051#1 -144203051#0 -150036796#59 -150036796#58 -150036796#57 -150036796#56 -150036796#55 -150036796#54 -150036796#53 -150036796#52 -150036796#51 -150036796#50 -150036796#49 -150036796#48 -150036796#47 15160592#0 15160592#1 -15177859#31"/>
    </vehicle>
    <vehicle id="13" depart="13.00">
        <route edges="-15138381#4 -15138381#3 -15138381#2 351211612#3 351211612#4 351211612#5 351211612#6 351211612#7 243864209#0 243864209#1 243864209#2 243864209#3 243864209#4 243864209#5 243864209#6 243864209#7 243864209#8 243864209#9 155135498#0 155135498#1 155135498#2 155135498#3 155135498#4 155135498#5 155135498#6 155135498#7 155135498#8 155135498#9 155135498#10 144965000#3 144965000#4 144965000#5 144965000#6 144965000#7 -15153605#2 -15153605#1 -15153605#0 15127183 -15139010#4"/>
    </vehicle>
    <vehicle id="14" depart="14.00">
        <route edges="15178313#4 960074321#3 15145365#0 99960568#1 99960568#2 351211612#0 351211612#1 351211612#2 351211612#3 351211612#4 351211612#5 351211612#6 351211612#7 243864209#0 243864209#1 243864209#2 243864209#3 243864209#4 243864209#5 243864209#6 243864209#7 243864209#8 243864209#9 155135498#0 155135498#1 155135498#2 155135498#3 155135498#4 155135498#5 155135498#6 155135498#7 155135498#8 155135498#9 155135498#10 144965000#3 144965000#4 144965000#5 144965000#6 144965000#7 1073781688#0 1073781688#1 1073781688#2 1073781688#3 1073781688#4 1073781688#5 1073781688#6 1073781688#7 1073781688#8 1073781688#9 150003837#0 150003837#1 150003837#2 150003837#3 49416980 1053275369 1053275370#0 1053275370#1 1053275370#2 1053275370#3 1053275371 1053275372 1053275373 49417084#0 49417084#1 1053275374 1053275376 1053275375#0 1053275375#1 1053275377 98058927#2 98058927#3 1052916924#0 1052916924#1 1052916924#2 98058910#0 98058910#1 98058910#2 98058910#3 98058910#4 148646872#0 148646872#1 148646872#2 148646872#3 148646872#4 148646872#5 148646872#6 148646872#7 148646872#8 148646872#9 15139915#0 15139915#1 15139915#2 15139915#3"/>
    </vehicle>
    <vehicle id="15" depart="15.00">
        <route edges="15170149#0 15170149#1 15170149#2 -15170149#2 -15170149#1 -15170149#0 -351211553#12 15133909 15165200#0 15165200#1 15165200#2 15165200#3 15165200#4 15165200#5 15165200#6 15165200#7 15165200#8 15165200#9 15165200#10 99960580#0 99960580#1 99960580#2 -15157747#13 -15157747#12 -15157747#11 -15157747#10 -15157747#9 -15157747#8 -15157747#7 -15157747#6 -15157747#5 -15157747#4 -15157747#3 -15157747#2 15157747#2"/>
    </vehicle>
    <vehicle id="16" depart="16.00">
        <route edges="150003844#9 99960568#0 99960568#1 99960568#2 351211612#0 351211612#1 351211612#2 351211612#3 351211612#4 351211612#5 351211612#6 351211612#7 243864209#0 243864209#1 243864209#2 243864209#3 243864209#4 243864209#5 243864209#6 243864209#7 243864209#8 243864209#9 155135498#0 155135498#1 155135498#2 155135498#3 155135498#4 155135498#5 155135498#6 155135498#7 155135498#8 155135498#9 155135498#10 144965000#3 144965000#4 144965000#5 144965000#6 144965000#7 1073781688#0 1073781688#1 1073781688#2 1073781688#3 1073781688#4 1073781688#5 1073781688#6 1073781688#7 1073781688#8 1073781688#9 150003857#0 150003857#1 150003857#2 150003857#3 49416672 49416671 243864862#0 243864862#1 243864862#2 243864862#3 243864862#4 149892611 149892607#0 149892607#1 149892607#2 149892607#3 746501228#12 746501228#13 746501228#14 746501228#15 746501228#16 746501228#17 746501228#18 787356805#0 787356805#1 787356805#2 787356805#3 787356805#4 787356805#5 787356805#6 787356805#7 787356805#8"/>
    </vehicle>
    <vehicle id="17" depart="17.00">
        <route edges="-163792420#0 163792367 365948019#2 163792398 365948018#0 365948018#1 365948018#2 365948017 365948019#0 163792405 163792420#0 163792420#1 163792420#2 163792420#3 15150763#20 15146395#0 15146395#1 1060508594#0 1060508594#1 242650260#0 242650260#1 1052916932#0 1052916932#1 242650262#0 242650262#1 242650262#2 242650262#3 15133425#2 15133425#3 15133425#4 15133425#5 15133425#6 15133490#0 15133490#1 15133490#2 15133490#3 15133490#4"/>
    </vehicle>
    <vehicle id="18" depart="18.00">
        <route edges="15176247#0 15176247#1 15143136 -15151239 243367504#2 243367504#3 243367504#4 243367504#5 243367504#6 150036778 150036776#0 150036776#1 150036776#2 150036776#3 150036776#4 150036776#5 150036776#6 150036776#7 150036776#8 150036776#9 150036776#10 150036776#11 150036776#12 150036776#13 149389139#0 149389139#1 149389139#2 15165484#0 15165484#1 15165484#2 15165484#3 15165484#4 15165484#5 15165484#6 15165484#7 15165484#8 15165484#9 15165484#10 -606212768 15142228#7 15142228#8 15142228#9 15142228#10 15142228#11 15142228#12 15142228#13 15142228#14 15142228#15 15142228#16 15142228#17 15142228#18 15142228#19 15142228#20 15142228#21 15142228#22 15142228#23 15142228#24 15142228#25 15142228#26 15142228#27 15142228#28 15142228#29 15142228#30 15142228#31 15142228#32 15142228#33 15142228#34 15142228#35 15142228#36 15142228#37 15142228#38 15142228#39 15142228#40 15142228#41 15142228#42 15142228#43 15142228#44 15142228#45"/>
    </vehicle>
    <vehicle id="19" depart="19.00">
        <route edges="15183933#3 -1100861864#1 -1100861864#0 1100861865#0 1100861865#1 1100861865#2 144203051#0 144203051#1 144203051#2 144203051#3 144203051#4 144203051#5 144203051#6 144203051#7 144203051#8 711239032 711239031#0 711239031#1 711239031#2 711239031#3 711239031#4 711239031#5 711239031#6 711239031#7 711239031#8 711239031#9 711239031#10 711239031#11 711239031#12 711239031#13 711239031#14 711239031#15 711239031#16 711239031#17 711239031#18 711239031#19 711239031#20 98058927#0 98058927#1 98058927#2 98058927#3 1052916924#0 1052916924#1 1052916924#2 98058910#0 98058910#1 98058910#2 98058910#3 98058910#4 148646872#0 148646872#1 148646872#2 -15133490#8 -15133490#7 -15133490#6 -15133490#5 -15133490#4 -15133490#3 -15133490#2 -15133490#1 -15133490#0 -15133425#6 15138076#0 15138076#1"/>
    </vehicle>
    <vehicle id="20" depart="20.00">
        <route edges="15154446#10 -15162727#2 -15162727#1 -787356805#1 -787356805#0 -746501228#18 -746501228#17 -746501228#16 -746501228#15 -746501228#14 -746501228#13 -746501228#12 -149892607#3 -149892607#2 -149892607#1 -149892607#0 -149892611 -243864862#4 -243864862#3 -243864862#2 -243864862#1 -243864862#0 -49416671 -49416672 -150003857#3 -150003857#2 -150003857#1 -150003857#0 -99960580#10 -99960580#9 -99960580#8 -99960580#7 -99960580#6 -99960580#5 -99960580#4 -99960580#3 -99960580#2 -99960580#1 -99960580#0 99960562#0 99960562#1 99960562#2 99960562#3 99960562#4 99960562#5 99960562#6 -150036796#17 -150036796#16 -150036796#15"/>
    </vehicle>
    <vehicle id="21" depart="21.00">
        <route edges="-15156404#6 -99960580#4 -99960580#3 15157747#14 15157747#15 15157747#16 15157747#17 15157747#18 15157747#19 15157747#20 15157747#21 15157747#22 15157747#23 15157747#24 15157747#25 15157747#26 243865988#0 243865988#1 243865988#2 243865988#3 243865988#4 243865988#5 163792377 365948018#0 365948018#1 365948018#2 163792381 163792382#0 163792382#1 163792382#2 163792382#3 163792382#4 163792382#5 163792382#6 163792382#7 163792382#8 163792382#9 163792382#10 163792382#11 163792382#12 243865987#0 243865987#1 243865987#2 243865987#3 243865987#4 -711239031#3 -711239031#2 -711239031#1 -711239031#0 -711239032 -144203051#8 -144203051#7 -144203051#6 -144203051#5 -144203051#4 -144203051#3 -144203051#2 -144203051#1 -144203051#0 -1100861865#2 -1100861865#1 -1100861865#0 -15153140#1 -15153140#0 15177427#0 15177427#1 1036530696 1036530695#0 1036530695#1 1011834119#0 1011834119#1 1036530693#0 1036530693#1 1036530693#2 243864201#0 243864201#1 243864201#2 243864201#3 243864201#4 243864201#5 243864201#6 243864201#7 243864201#8 243864201#9 243864201#10 243864201#11 243864201#12 243864201#13 243864201#14 1011834101 243864205 152184113#5 152184113#6 152184113#7 152184113#8 152184113#9 243864204#0 243864204#1 243864204#2 243864203#0 15146655#0 15146655#1 15167087 705163139 -705163139 -15167087"/>
    </vehicle>
    <vehicle id="22" depart="22.00">
        <route edges="-15137720#18 -15137720#17 -15165484#8 -15165484#7 -15165484#6 -15165484#5 -15165484#4 -15165484#3 -15165484#2 -15165484#1 -15165484#0 -149389139#2 -149389139#1 -149389139#0 -150036776#13 -242650262#5 -242650262#4 -242650262#3 -242650262#2 -242650262#1 -15158053#13 -15158053#12 -15158053#11 -15158053#10"/>
    </vehicle>
    <vehicle id="23" depart="23.00">
        <route edges="-15139040#7 -242650262#2 -242650262#1 -242650262#0 1052916934#0 1052916934#1 242650259#0 242650259#1 242650259#2 242650259#3 -15146395#1 -15146395#0 -15150763#20 -15150763#19 -15150763#18 -15150763#17 -15150763#16 -15150763#15 -15150763#14 -15164821#15 -15164821#14 -15164821#13 -15164821#12 -15164821#11 -15164821#10 -15164821#9 -15164821#8 -15164821#7 -15164821#6 -15164821#5 -15164821#4"/>
    </vehicle>
    <vehicle id="24" depart="24.00">
        <route edges="15144028#3 -15163094#1 -15163094#0 -243864201#9 -243864201#8 -243864201#7 -243864201#6 -243864201#5 -243864201#4 -243864201#3 -243864201#2 -243864201#1 -243864201#0 -1036530693#2 -1036530693#1 -1036530693#0 -1011834119#1 -1011834119#0 -1036530695#1 -1036530695#0 -1036530696 -15177427#1 -15177427#0 15153140#0 15153140#1 1100861865#0 1100861865#1 1100861865#2 144203051#0 144203051#1 144203051#2 144203051#3 144203051#4 144203051#5 144203051#6 144203051#7 144203051#8 711239032 711239031#0 711239031#1 711239031#2 711239031#3 711239031#4 711239031#5 711239031#6 711239031#7 711239031#8 711239031#9 711239031#10 711239031#11 711239031#12 711239031#13 711239031#14 711239031#15 711239031#16 711239031#17 711239031#18 711239031#19 711239031#20 98058927#0 98058927#1 98058927#2 98058927#3 1052916924#0 1052916924#1 1052916924#2 98058910#0 98058910#1 98058910#2 98058910#3 98058910#4 148646872#0 148646872#1 148646872#2 148646872#3 148646872#4 148646872#5 148646872#6 148646872#7 148646872#8 148646872#9 15139915#0 -15186863#9 -15186863#8"/>
    </vehicle>
    <vehicle id="25" depart="25.00">
        <route edges="-15186863#10 -15139915#0 -148646872#9 -148646872#8 -148646872#7 -148646872#6 -148646872#5 -148646872#4 -148646872#3 -148646872#2 -148646872#1 -148646872#0 -98058910#4 -98058910#3 -98058910#2 -98058910#1 -98058910#0 1052916926#0 1052916926#1 1052916926#2 1055068869#0 1055068869#1 98058924 -711239031#20 -711239031#19 -711239031#18 -711239031#17 -711239031#16 -711239031#15 -711239031#14 -711239031#13 -711239031#12 -711239031#11 -711239031#10 -711239031#9 -711239031#8 -711239031#7 -711239031#6 -711239031#5 -711239031#4 -243865987#4 -243865987#3 -243865987#2 -243865987#1 -243865987#0 -163792382#12 -163792382#11 -163792382#10 -163792382#9 -163792382#8 -163792382#7 -163792382#6 -163792382#5 -163792382#4 -163792382#3 -163792382#2 -163792382#1 -163792382#0 163792410 365948019#0 365948019#1 365948019#2 163792411 -243865988#5 -243865988#4 -243865988#3 -243865988#2 -243865988#1 -243865988#0 -15157747#26 -15157747#25 -15157747#24 -15157747#23 -15157747#22 -15157747#21 -15157747#20 -15157747#19 -15157747#18 -15157747#17 -15157747#16 -15157747#15 -15157747#14 -15157747#13 -15157747#12 -15155141#11"/>
    </vehicle>
    <vehicle id="26" depart="26.00">
        <route edges="-15162725#2 -15138381#19 -15138381#18 15144447#2 -150036796#25 -150036796#24 -150036796#23 -150036796#22 -150036796#21 -150036796#20 -150036796#19 15165200#6 15165200#7 15165200#8 15165200#9 15165200#10 99960580#0 99960580#1 99960580#2 99960580#3 99960580#4 99960580#5 99960580#6 99960580#7 99960580#8 99960580#9 99960580#10 150003837#0 150003837#1 150003837#2 150003837#3 49416980 49416673 138708868 42705627 49416647 49416646 49416642 15129008 359209841"/>
    </vehicle>
    <vehicle id="27" depart="27.00">
        <route edges="15145364#2 15145364#3 15145364#4 15145364#5 15145364#6 15145364#7 15165200#1 15165200#2 15165200#3 15165200#4 15165200#5 150036796#19 150036796#20 150036796#21 150036796#22 150036796#23 150036796#24 150036796#25 150036796#26 150036796#27 150036796#28 150036796#29 150036796#30 150036796#31 150036796#32 150036796#33 150036796#34 150036796#35 150036796#36 150036796#37 150036796#38 150036796#39 150036796#40 150036796#41 150036796#42 150036796#43 150036796#44 150036796#45 150036796#46 150036796#47 150036796#48 150036796#49 150036796#50 150036796#51 150036796#52 150036796#53 150036796#54 150036796#55 150036796#56 150036796#57 150036796#58 150036796#59 144203051#0 144203051#1 144203051#2 144203051#3 144203051#4 144203051#5 144203051#6 144203051#7 144203051#8 711239032 711239031#0 711239031#1 711239031#2 711239031#3 711239031#4 711239031#5 711239031#6 711239031#7 711239031#8 711239031#9 711239031#10 711239031#11 711239031#12 711239031#13 711239031#14 711239031#15 711239031#16 711239031#17 711239031#18 -15160741#6 -15160741#5 -15160741#4 -15160741#3 -15160741#2 -15160741#1 15140862#0 15140862#1"/>
    </vehicle>
    <vehicle id="28" depart="28.00">
        <route edges="-15147608#2 -15145364#20 -15145364#19 15164821#1 15164821#2 -150036796#32 -150036796#31 -150036796#30 -150036796#29 -150036796#28 -150036796#27 -150036796#26 -150036796#25 -150036796#24 -150036796#23 -150036796#22 -150036796#21 -150036796#20 -150036796#19 15165200#6 15165200#7 15165200#8 15165200#9 15165200#10 99960580#0 99960580#1 99960580#2 15157747#14 15157747#15 15157747#16"/>
    </vehicle>
    <vehicle id="29" depart="29.00">
        <route edges="-15146918#0 133066548#5 -15175502#2 -15175502#1 -15175502#0 351211553#1 351211553#2 -15146921#3 -15146921#2 -15146921#1 -15146921#0 15153606#0 892202310 -243864208"/>
    </vehicle>
    <vehicle id="30" depart="30.00">
        <route edges="98058927#3 1052916924#0 1052916924#1 1052916924#2 98058910#0 98058910#1 98058910#2 98058910#3 98058910#4 148646872#0 148646872#1 148646872#2 148646872#3 148646872#4 148646872#5 148646872#6 148646872#7 148646872#8 148646872#9 15139915#0 15139915#1 15144545#7 15144545#8"/>
    </vehicle>
    <vehicle id="31" depart="31.00">
        <route edges="15133425#2 15133425#3 15133425#4 15133425#5 15133425#6 15133490#0 15133490#1 15133490#2 15133490#3 15133490#4 15133490#5 15133490#6 15133490#7 15133490#8 -148646872#2 -148646872#1 -148646872#0 -98058910#4 -98058910#3 -98058910#2 -98058910#1 -98058910#0 1052916926#0 1052916926#1 1052916926#2 1055068869#0 1055068869#1 98058924 -711239031#20 -711239031#19 -711239031#18 -711239031#17 -711239031#16 -711239031#15 -711239031#14 -711239031#13 -711239031#12 -711239031#11 -711239031#10 -711239031#9 -711239031#8 -711239031#7 -711239031#6 -711239031#5 -711239031#4 243865987#5 243865987#6 243865987#7 243865987#8 243865987#9 243865987#10 243865987#11 243865987#12 243865987#13 243865987#14 243865987#15 243865987#16 243865987#17 -705163146#11 -705163146#10 -705163146#9 -705163146#8 -705163146#7 -705163146#6 15151360#2 15151360#3"/>
    </vehicle>
    <vehicle id="32" depart="32.00">
        <route edges="15177867#3 15177867#4 -15177867#4 -15177867#3 -15177867#2 -15177867#1 -15177867#0 -144203051#6 -144203051#5 -144203051#4 -144203051#3 -144203051#2 -144203051#1 -144203051#0 -1100861865#2 -1100861865#1 -1100861865#0 -15153140#1 -15153140#0 15177427#0 15177427#1 1036530696 1036530695#0 1036530695#1 -351211552#3 -351211552#2 -351211552#1 -351211552#0 -351211553#47 -351211553#46 -351211553#45 -351211553#44 -351211553#43 -351211553#42 -351211553#41 -351211553#40 -351211553#39 -351211553#38 -351211553#37 -351211553#36 -351211553#35 -351211553#34 15164589#0 15164589#1 15164589#2 15164589#3"/>
    </vehicle>
    <vehicle id="33" depart="33.00">
        <route edges="-15156406#2 -15156406#1 -15156406#0 711239031#14 711239031#15 711239031#16 711239031#17 711239031#18 711239031#19 711239031#20 98058927#0 98058927#1 98058927#2 98058927#3 1052916924#0 1052916924#1 1052916924#2 98058910#0 98058910#1 98058910#2 98058910#3 98058910#4 148646872#0 148646872#1 148646872#2 148646872#3 -148646872#3"/>
    </vehicle>
    <vehicle id="34" depart="34.00">
        <route edges="-15172947#5 -15172947#4 15172947#4 15172947#5 99960580#0 99960580#1 99960580#2 99960580#3 99960580#4 99960580#5 99960580#6 99960580#7 99960580#8 99960580#9 99960580#10 150003857#0 150003857#1 150003857#2 150003857#3 49416672 49416671 243864862#0 243864862#1 243864862#2 243864862#3 243864862#4 149892611 149892607#0 149892607#1 149892607#2 149892607#3 -746501228#11 -746501228#10 -746501228#9 -746501228#8 -746501228#7 -746501228#6 -746501228#5 -746501228#4 -746501228#3 -746501228#2 -746501228#1 -746501228#0 746501229#0 746501229#1 746501229#2 746501229#3 746501229#4 681542433#0 681542433#1 681542433#2 681542433#3 681542432#0 681542432#1 681542432#2 15165349#0 15165349#1 15165349#2 15182727#0 15182727#1 15182727#2 15182727#3 15182727#4 -15163288#3 -15163288#2"/>
    </vehicle>
    <vehicle id="35" depart="35.00">
        <route edges="-15154446#5 -15154446#4 -15154446#3 -15154446#2 -351211628#3 -351211628#2 -351211628#1 -351211628#0 -149892607#3 -149892607#2 -149892607#1 -149892607#0 -149892611 -243864862#4 -243864862#3 -243864862#2 -243864862#1 -243864862#0 -49416671 -49416672 -150003857#3 508006544 49416980 49416673"/>
    </vehicle>
    <vehicle id="36" depart="36.00">
        <route edges="163792405 163792367 365948019#2 163792411 -243865988#5 -243865988#4 -243865988#3 -243865988#2 -243865988#1 -243865988#0 -15157747#26 -15157747#25 -15157747#24 -15157747#23 -15157747#22 -15157747#21 -15157747#20 -15157747#19 -15157747#18 -15157747#17 -15157747#16 -15157747#15 -15157747#14 -99960580#2 -15173482#5"/>
    </vehicle>
    <vehicle id="37" depart="37.00">
        <route edges="15145741#2 -131984101#2 -131984101#1 -131984101#0 351211553#5 351211553#6 351211553#7 351211553#8 351211553#9 351211553#10 351211553#11 15133909 15165200#0 15165200#1 15165200#2 15165200#3 15165200#4 15165200#5 150036796#19 150036796#20 150036796#21 150036796#22 150036796#23 150036796#24 150036796#25 150036796#26 150036796#27 150036796#28 150036796#29 150036796#30 150036796#31 150036796#32 150036796#33 150036796#34 150036796#35 150036796#36 150036796#37 150036796#38 150036796#39 150036796#40 150036796#41 150036796#42 150036796#43 150036796#44 150036796#45 150036796#46 150036796#47 150036796#48 150036796#49 150036796#50 150036796#51 150036796#52 150036796#53 150036796#54 150036796#55 150036796#56 150036796#57 150036796#58 150036796#59 144203051#0 144203051#1 144203051#2 144203051#3 144203051#4 144203051#5 144203051#6 144203051#7 144203051#8 711239032 711239031#0 711239031#1 711239031#2 711239031#3 711239031#4 711239031#5 711239031#6 711239031#7 711239031#8 711239031#9 711239031#10 711239031#11 711239031#12 711239031#13 711239031#14 711239031#15 711239031#16 711239031#17 711239031#18 711239031#19 711239031#20 98058927#0 98058927#1 98058927#2 98058927#3 1052916924#0 1052916924#1 1052916924#2 98058910#0 98058910#1 98058910#2 98058910#3 98058910#4 148646872#0 148646872#1 148646872#2 148646872#3 148646872#4 148646872#5 148646872#6 148646872#7 148646872#8 148646872#9 148646872#10 148646872#11 15155074#0 15155074#1 15155074#2 15155074#3 15155074#4 15155074#5 15155074#6 15142213#0 15142213#1 15142213#2 -281586811#14 -281586811#13 -281586811#12 -281586811#11"/>
    </vehicle>
    <vehicle id="38" depart="38.00">